!- Windows Line endings 

VERSION,
    8.8.0;                    !- Version Identifier

SIMULATIONCONTROL,
    No,                       !- Do Zone Sizing Calculation
    No,                       !- Do System Sizing Calculation
    No,                       !- Do Plant Sizing Calculation
    No,                       !- Run Simulation for Sizing Periods
    Yes,                      !- Run Simulation for Weather File Run Periods
    No,                       !- Do HVAC Sizing Simulation for Sizing Periods
    1;                        !- Maximum Number of HVAC Sizing Simulation Passes

BUILDING,
    IHOPETHISWORKS,           !- Name
    0,                        !- North Axis
    City,                     !- Terrain
    0.04,                     !- Loads Convergence Tolerance Value
    0.4,                      !- Temperature Convergence Tolerance Value
    FullInteriorAndExteriorWithReflections,    !- Solar Distribution
    25,                       !- Maximum Number of Warmup Days
    6;                        !- Minimum Number of Warmup Days

SHADOWCALCULATION,
    AverageOverDaysInFrequency,    !- Calculation Method
    20,                       !- Calculation Frequency
    15000,                    !- Maximum Figures in Shadow Overlap Calculations
    SutherlandHodgman,        !- Polygon Clipping Algorithm
    SimpleSkyDiffuseModeling,    !- Sky Diffuse Modeling Algorithm
    InternalCalculation,      !- External Shading Calculation Method
    Yes;                      !- Output External Shading Calculation Results

TIMESTEP,
    6;                        !- Number of Timesteps per Hour

SITE:LOCATION,
    CARDIFF,                  !- Name
    51.48,                    !- Latitude
    -3.34,                    !- Longitude
    0.0,                      !- Time Zone
    10.0;                     !- Elevation

RUNPERIOD,
    PARAMETRIC RUN,           !- Name
    1,                        !- Begin Month
    1,                        !- Begin Day of Month
    12,                       !- End Month
    31,                       !- End Day of Month
    Monday,                   !- Day of Week for Start Day
    Yes,                      !- Use Weather File Holidays and Special Days
    Yes,                      !- Use Weather File Daylight Saving Period
    No,                       !- Apply Weekend Holiday Rule
    Yes,                      !- Use Weather File Rain Indicators
    Yes,                      !- Use Weather File Snow Indicators
    1,                        !- Number of Times Runperiod to be Repeated
    Yes;                      !- Increment Day of Week on repeat

SITE:GROUNDTEMPERATURE:BUILDINGSURFACE,
    18,                       !- January Ground Temperature
    18,                       !- February Ground Temperature
    18,                       !- March Ground Temperature
    18,                       !- April Ground Temperature
    18,                       !- May Ground Temperature
    18,                       !- June Ground Temperature
    18,                       !- July Ground Temperature
    18,                       !- August Ground Temperature
    18,                       !- September Ground Temperature
    18,                       !- October Ground Temperature
    18,                       !- November Ground Temperature
    18;                       !- December Ground Temperature

SCHEDULETYPELIMITS,
    FractionLimits,           !- Name
    0,                        !- Lower Limit Value
    1,                        !- Upper Limit Value
    Continuous,               !- Numeric Type
    Dimensionless;            !- Unit Type

SCHEDULETYPELIMITS,
    OnOffLimits,              !- Name
    0,                        !- Lower Limit Value
    1,                        !- Upper Limit Value
    Discrete,                 !- Numeric Type
    Dimensionless;            !- Unit Type

SCHEDULETYPELIMITS,
    TemperatureSetpointLimits,    !- Name
    0,                        !- Lower Limit Value
    100,                      !- Upper Limit Value
    Continuous,               !- Numeric Type
    Dimensionless;            !- Unit Type

SCHEDULETYPELIMITS,
    ActivityLevelLimits,      !- Name
    0,                        !- Lower Limit Value
    1000,                     !- Upper Limit Value
    Continuous,               !- Numeric Type
    Dimensionless;            !- Unit Type

SCHEDULE:DAY:HOURLY,
    AlwaysOnDay,              !- Name
    OnOffLimits,              !- Schedule Type Limits Name
    1,                        !- Hour 1
    1,                        !- Hour 2
    1,                        !- Hour 3
    1,                        !- Hour 4
    1,                        !- Hour 5
    1,                        !- Hour 6
    1,                        !- Hour 7
    1,                        !- Hour 8
    1,                        !- Hour 9
    1,                        !- Hour 10
    1,                        !- Hour 11
    1,                        !- Hour 12
    1,                        !- Hour 13
    1,                        !- Hour 14
    1,                        !- Hour 15
    1,                        !- Hour 16
    1,                        !- Hour 17
    1,                        !- Hour 18
    1,                        !- Hour 19
    1,                        !- Hour 20
    1,                        !- Hour 21
    1,                        !- Hour 22
    1,                        !- Hour 23
    1;                        !- Hour 24

SCHEDULE:DAY:HOURLY,
    AlwaysOffDay,             !- Name
    OnOffLimits,              !- Schedule Type Limits Name
    0,                        !- Hour 1
    0,                        !- Hour 2
    0,                        !- Hour 3
    0,                        !- Hour 4
    0,                        !- Hour 5
    0,                        !- Hour 6
    0,                        !- Hour 7
    0,                        !- Hour 8
    0,                        !- Hour 9
    0,                        !- Hour 10
    0,                        !- Hour 11
    0,                        !- Hour 12
    0,                        !- Hour 13
    0,                        !- Hour 14
    0,                        !- Hour 15
    0,                        !- Hour 16
    0,                        !- Hour 17
    0,                        !- Hour 18
    0,                        !- Hour 19
    0,                        !- Hour 20
    0,                        !- Hour 21
    0,                        !- Hour 22
    0,                        !- Hour 23
    0;                        !- Hour 24

SCHEDULE:DAY:HOURLY,
    CoolingSetpointDayWeekday,    !- Name
    TemperatureSetpointLimits,    !- Schedule Type Limits Name
    100,                      !- Hour 1
    100,                      !- Hour 2
    100,                      !- Hour 3
    100,                      !- Hour 4
    100,                      !- Hour 5
    24,                       !- Hour 6
    24,                       !- Hour 7
    24,                       !- Hour 8
    24,                       !- Hour 9
    24,                       !- Hour 10
    24,                       !- Hour 11
    24,                       !- Hour 12
    24,                       !- Hour 13
    24,                       !- Hour 14
    24,                       !- Hour 15
    24,                       !- Hour 16
    24,                       !- Hour 17
    24,                       !- Hour 18
    100,                      !- Hour 19
    100,                      !- Hour 20
    100,                      !- Hour 21
    100,                      !- Hour 22
    100,                      !- Hour 23
    100;                      !- Hour 24

SCHEDULE:DAY:HOURLY,
    CoolingSetpointDayWeekend,    !- Name
    TemperatureSetpointLimits,    !- Schedule Type Limits Name
    100,                      !- Hour 1
    100,                      !- Hour 2
    100,                      !- Hour 3
    100,                      !- Hour 4
    100,                      !- Hour 5
    100,                      !- Hour 6
    100,                      !- Hour 7
    100,                      !- Hour 8
    100,                      !- Hour 9
    100,                      !- Hour 10
    100,                      !- Hour 11
    100,                      !- Hour 12
    100,                      !- Hour 13
    100,                      !- Hour 14
    100,                      !- Hour 15
    100,                      !- Hour 16
    100,                      !- Hour 17
    100,                      !- Hour 18
    100,                      !- Hour 19
    100,                      !- Hour 20
    100,                      !- Hour 21
    100,                      !- Hour 22
    100,                      !- Hour 23
    100;                      !- Hour 24

SCHEDULE:DAY:HOURLY,
    HeatingSetpointDayWeekday,    !- Name
    TemperatureSetpointLimits,    !- Schedule Type Limits Name
    16,                       !- Hour 1
    16,                       !- Hour 2
    16,                       !- Hour 3
    16,                       !- Hour 4
    16,                       !- Hour 5
    20,                       !- Hour 6
    20,                       !- Hour 7
    20,                       !- Hour 8
    20,                       !- Hour 9
    20,                       !- Hour 10
    20,                       !- Hour 11
    20,                       !- Hour 12
    20,                       !- Hour 13
    20,                       !- Hour 14
    20,                       !- Hour 15
    20,                       !- Hour 16
    20,                       !- Hour 17
    20,                       !- Hour 18
    16,                       !- Hour 19
    16,                       !- Hour 20
    16,                       !- Hour 21
    16,                       !- Hour 22
    16,                       !- Hour 23
    16;                       !- Hour 24

SCHEDULE:DAY:HOURLY,
    HeatingSetpointDayWeekend,    !- Name
    TemperatureSetpointLimits,    !- Schedule Type Limits Name
    16,                       !- Hour 1
    16,                       !- Hour 2
    16,                       !- Hour 3
    16,                       !- Hour 4
    16,                       !- Hour 5
    16,                       !- Hour 6
    16,                       !- Hour 7
    16,                       !- Hour 8
    16,                       !- Hour 9
    16,                       !- Hour 10
    16,                       !- Hour 11
    16,                       !- Hour 12
    16,                       !- Hour 13
    16,                       !- Hour 14
    16,                       !- Hour 15
    16,                       !- Hour 16
    16,                       !- Hour 17
    16,                       !- Hour 18
    16,                       !- Hour 19
    16,                       !- Hour 20
    16,                       !- Hour 21
    16,                       !- Hour 22
    16,                       !- Hour 23
    16;                       !- Hour 24

SCHEDULE:DAY:HOURLY,
    OccupantGainDayWeekday,    !- Name
    FractionLimits,           !- Schedule Type Limits Name
    0,                        !- Hour 1
    0,                        !- Hour 2
    0,                        !- Hour 3
    0,                        !- Hour 4
    0,                        !- Hour 5
    0,                        !- Hour 6
    0.25,                     !- Hour 7
    0.25,                     !- Hour 8
    1,                        !- Hour 9
    1,                        !- Hour 10
    1,                        !- Hour 11
    0.75,                     !- Hour 12
    0.75,                     !- Hour 13
    1,                        !- Hour 14
    1,                        !- Hour 15
    1,                        !- Hour 16
    0.5,                      !- Hour 17
    0.25,                     !- Hour 18
    0,                        !- Hour 19
    0,                        !- Hour 20
    0,                        !- Hour 21
    0,                        !- Hour 22
    0,                        !- Hour 23
    0;                        !- Hour 24

SCHEDULE:DAY:HOURLY,
    OccupantGainDayWeekend,    !- Name
    FractionLimits,           !- Schedule Type Limits Name
    0,                        !- Hour 1
    0,                        !- Hour 2
    0,                        !- Hour 3
    0,                        !- Hour 4
    0,                        !- Hour 5
    0,                        !- Hour 6
    0,                        !- Hour 7
    0,                        !- Hour 8
    0,                        !- Hour 9
    0,                        !- Hour 10
    0,                        !- Hour 11
    0,                        !- Hour 12
    0,                        !- Hour 13
    0,                        !- Hour 14
    0,                        !- Hour 15
    0,                        !- Hour 16
    0,                        !- Hour 17
    0,                        !- Hour 18
    0,                        !- Hour 19
    0,                        !- Hour 20
    0,                        !- Hour 21
    0,                        !- Hour 22
    0,                        !- Hour 23
    0;                        !- Hour 24

SCHEDULE:DAY:HOURLY,
    LightingGainDayWeekday,    !- Name
    FractionLimits,           !- Schedule Type Limits Name
    0,                        !- Hour 1
    0,                        !- Hour 2
    0,                        !- Hour 3
    0,                        !- Hour 4
    0,                        !- Hour 5
    0,                        !- Hour 6
    0,                        !- Hour 7
    1,                        !- Hour 8
    1,                        !- Hour 9
    1,                        !- Hour 10
    1,                        !- Hour 11
    1,                        !- Hour 12
    1,                        !- Hour 13
    1,                        !- Hour 14
    1,                        !- Hour 15
    1,                        !- Hour 16
    1,                        !- Hour 17
    1,                        !- Hour 18
    1,                        !- Hour 19
    0,                        !- Hour 20
    0,                        !- Hour 21
    0,                        !- Hour 22
    0,                        !- Hour 23
    0;                        !- Hour 24

SCHEDULE:DAY:HOURLY,
    LightingGainDayWeekend,    !- Name
    FractionLimits,           !- Schedule Type Limits Name
    0,                        !- Hour 1
    0,                        !- Hour 2
    0,                        !- Hour 3
    0,                        !- Hour 4
    0,                        !- Hour 5
    0,                        !- Hour 6
    0,                        !- Hour 7
    0,                        !- Hour 8
    0,                        !- Hour 9
    0,                        !- Hour 10
    0,                        !- Hour 11
    0,                        !- Hour 12
    0,                        !- Hour 13
    0,                        !- Hour 14
    0,                        !- Hour 15
    0,                        !- Hour 16
    0,                        !- Hour 17
    0,                        !- Hour 18
    0,                        !- Hour 19
    0,                        !- Hour 20
    0,                        !- Hour 21
    0,                        !- Hour 22
    0,                        !- Hour 23
    0;                        !- Hour 24

SCHEDULE:DAY:HOURLY,
    EquipmentGainDayWeekday,    !- Name
    FractionLimits,           !- Schedule Type Limits Name
    0,                        !- Hour 1
    0,                        !- Hour 2
    0,                        !- Hour 3
    0,                        !- Hour 4
    0,                        !- Hour 5
    0,                        !- Hour 6
    0,                        !- Hour 7
    1,                        !- Hour 8
    1,                        !- Hour 9
    1,                        !- Hour 10
    1,                        !- Hour 11
    1,                        !- Hour 12
    1,                        !- Hour 13
    1,                        !- Hour 14
    1,                        !- Hour 15
    1,                        !- Hour 16
    1,                        !- Hour 17
    1,                        !- Hour 18
    1,                        !- Hour 19
    1,                        !- Hour 20
    0,                        !- Hour 21
    0,                        !- Hour 22
    0,                        !- Hour 23
    0;                        !- Hour 24

SCHEDULE:DAY:HOURLY,
    EquipmentGainDayWeekend,    !- Name
    FractionLimits,           !- Schedule Type Limits Name
    0,                        !- Hour 1
    0,                        !- Hour 2
    0,                        !- Hour 3
    0,                        !- Hour 4
    0,                        !- Hour 5
    0,                        !- Hour 6
    0,                        !- Hour 7
    0,                        !- Hour 8
    0,                        !- Hour 9
    0,                        !- Hour 10
    0,                        !- Hour 11
    0,                        !- Hour 12
    0,                        !- Hour 13
    0,                        !- Hour 14
    0,                        !- Hour 15
    0,                        !- Hour 16
    0,                        !- Hour 17
    0,                        !- Hour 18
    0,                        !- Hour 19
    0,                        !- Hour 20
    0,                        !- Hour 21
    0,                        !- Hour 22
    0,                        !- Hour 23
    0;                        !- Hour 24

SCHEDULE:DAY:HOURLY,
    VentilationGainDayWeekday,    !- Name
    FractionLimits,           !- Schedule Type Limits Name
    0,                        !- Hour 1
    0,                        !- Hour 2
    0,                        !- Hour 3
    0,                        !- Hour 4
    0,                        !- Hour 5
    0,                        !- Hour 6
    0,                        !- Hour 7
    1,                        !- Hour 8
    1,                        !- Hour 9
    1,                        !- Hour 10
    1,                        !- Hour 11
    1,                        !- Hour 12
    1,                        !- Hour 13
    1,                        !- Hour 14
    1,                        !- Hour 15
    1,                        !- Hour 16
    1,                        !- Hour 17
    1,                        !- Hour 18
    1,                        !- Hour 19
    0,                        !- Hour 20
    0,                        !- Hour 21
    0,                        !- Hour 22
    0,                        !- Hour 23
    0;                        !- Hour 24

SCHEDULE:DAY:HOURLY,
    VentilationGainDayWeekend,    !- Name
    FractionLimits,           !- Schedule Type Limits Name
    0,                        !- Hour 1
    0,                        !- Hour 2
    0,                        !- Hour 3
    0,                        !- Hour 4
    0,                        !- Hour 5
    0,                        !- Hour 6
    0,                        !- Hour 7
    0,                        !- Hour 8
    0,                        !- Hour 9
    0,                        !- Hour 10
    0,                        !- Hour 11
    0,                        !- Hour 12
    0,                        !- Hour 13
    0,                        !- Hour 14
    0,                        !- Hour 15
    0,                        !- Hour 16
    0,                        !- Hour 17
    0,                        !- Hour 18
    0,                        !- Hour 19
    0,                        !- Hour 20
    0,                        !- Hour 21
    0,                        !- Hour 22
    0,                        !- Hour 23
    0;                        !- Hour 24

SCHEDULE:DAY:HOURLY,
    OccupantActivityLevelDay,    !- Name
    ActivityLevelLimits,      !- Schedule Type Limits Name
    75,                       !- Hour 1
    75,                       !- Hour 2
    75,                       !- Hour 3
    75,                       !- Hour 4
    75,                       !- Hour 5
    75,                       !- Hour 6
    75,                       !- Hour 7
    75,                       !- Hour 8
    75,                       !- Hour 9
    75,                       !- Hour 10
    75,                       !- Hour 11
    75,                       !- Hour 12
    75,                       !- Hour 13
    75,                       !- Hour 14
    75,                       !- Hour 15
    75,                       !- Hour 16
    75,                       !- Hour 17
    75,                       !- Hour 18
    75,                       !- Hour 19
    75,                       !- Hour 20
    75,                       !- Hour 21
    75,                       !- Hour 22
    75,                       !- Hour 23
    75;                       !- Hour 24

SCHEDULE:WEEK:COMPACT,
    OccupantGainWeek,         !- Name
    WeekDays,                 !- DayType List 1
    OccupantGainDayWeekday,    !- ScheduleDay Name 1
    AllOtherDays,             !- DayType List 2
    OccupantGainDayWeekend;    !- ScheduleDay Name 2

SCHEDULE:WEEK:COMPACT,
    LightingGainWeek,         !- Name
    WeekDays,                 !- DayType List 1
    LightingGainDayWeekday,    !- ScheduleDay Name 1
    AllOtherDays,             !- DayType List 2
    LightingGainDayWeekend;    !- ScheduleDay Name 2

SCHEDULE:WEEK:COMPACT,
    EquipmentGainWeek,        !- Name
    WeekDays,                 !- DayType List 1
    EquipmentGainDayWeekday,    !- ScheduleDay Name 1
    AllOtherDays,             !- DayType List 2
    EquipmentGainDayWeekend;    !- ScheduleDay Name 2

SCHEDULE:WEEK:COMPACT,
    OccupantActivityLevelWeek,    !- Name
    AllDays,                  !- DayType List 1
    OccupantActivityLevelDay;    !- ScheduleDay Name 1

SCHEDULE:WEEK:COMPACT,
    HeatingSetpointWeek,      !- Name
    WeekDays,                 !- DayType List 1
    HeatingSetpointDayWeekday,    !- ScheduleDay Name 1
    AllOtherDays,             !- DayType List 2
    HeatingSetpointDayWeekend;    !- ScheduleDay Name 2

SCHEDULE:WEEK:COMPACT,
    CoolingSetpointWeek,      !- Name
    WeekDays,                 !- DayType List 1
    CoolingSetpointDayWeekday,    !- ScheduleDay Name 1
    AllOtherDays,             !- DayType List 2
    CoolingSetpointDayWeekend;    !- ScheduleDay Name 2

SCHEDULE:WEEK:COMPACT,
    VentilationWeek,          !- Name
    Weekdays,                 !- DayType List 1
    VentilationGainDayWeekday,    !- ScheduleDay Name 1
    AllOtherDays,             !- DayType List 2
    VentilationGainDayWeekend;    !- ScheduleDay Name 2

SCHEDULE:WEEK:COMPACT,
    AlwaysOnWeek,             !- Name
    AllDays,                  !- DayType List 1
    AlwaysOnDay;              !- ScheduleDay Name 1

SCHEDULE:YEAR,
    OccupantGainYear,         !- Name
    FractionLimits,           !- Schedule Type Limits Name
    OccupantGainWeek,         !- ScheduleWeek Name 1
    1,                        !- Start Month 1
    1,                        !- Start Day 1
    12,                       !- End Month 1
    31;                       !- End Day 1

SCHEDULE:YEAR,
    LightingGainYear,         !- Name
    FractionLimits,           !- Schedule Type Limits Name
    LightingGainWeek,         !- ScheduleWeek Name 1
    1,                        !- Start Month 1
    1,                        !- Start Day 1
    12,                       !- End Month 1
    31;                       !- End Day 1

SCHEDULE:YEAR,
    EquipmentGainYear,        !- Name
    FractionLimits,           !- Schedule Type Limits Name
    EquipmentGainWeek,        !- ScheduleWeek Name 1
    1,                        !- Start Month 1
    1,                        !- Start Day 1
    12,                       !- End Month 1
    31;                       !- End Day 1

SCHEDULE:YEAR,
    OccupantActivityLevelYear,    !- Name
    ActivityLevelLimits,      !- Schedule Type Limits Name
    OccupantActivityLevelWeek,    !- ScheduleWeek Name 1
    1,                        !- Start Month 1
    1,                        !- Start Day 1
    12,                       !- End Month 1
    31;                       !- End Day 1

SCHEDULE:YEAR,
    HeatingSetpointYear,      !- Name
    TemperatureSetpointLimits,    !- Schedule Type Limits Name
    HeatingSetpointWeek,      !- ScheduleWeek Name 1
    1,                        !- Start Month 1
    1,                        !- Start Day 1
    12,                       !- End Month 1
    31;                       !- End Day 1

SCHEDULE:YEAR,
    CoolingSetpointYear,      !- Name
    TemperatureSetpointLimits,    !- Schedule Type Limits Name
    CoolingSetpointWeek,      !- ScheduleWeek Name 1
    1,                        !- Start Month 1
    1,                        !- Start Day 1
    12,                       !- End Month 1
    31;                       !- End Day 1

SCHEDULE:YEAR,
    VentilationYear,          !- Name
    OnOffLimits,              !- Schedule Type Limits Name
    VentilationWeek,          !- ScheduleWeek Name 1
    1,                        !- Start Month 1
    1,                        !- Start Day 1
    12,                       !- End Month 1
    31;                       !- End Day 1

SCHEDULE:YEAR,
    InfiltrationYear,         !- Name
    OnOffLimits,              !- Schedule Type Limits Name
    AlwaysOnWeek,             !- ScheduleWeek Name 1
    1,                        !- Start Month 1
    1,                        !- Start Day 1
    12,                       !- End Month 1
    31;                       !- End Day 1

SCHEDULE:YEAR,
    Always On,                !- Name
    OnOffLimits,              !- Schedule Type Limits Name
    AlwaysOnWeek,             !- ScheduleWeek Name 1
    1,                        !- Start Month 1
    1,                        !- Start Day 1
    12,                       !- End Month 1
    31;                       !- End Day 1

MATERIAL,
    INTERIOR WALL OUTSIDE MATERIAL,    !- Name
    MediumSmooth,             !- Roughness
    0.1,                      !- Thickness
    0.1,                      !- Conductivity
    800,                      !- Density
    1090,                     !- Specific Heat
    0.1,                      !- Thermal Absorptance
    0.4,                      !- Solar Absorptance
    0.5;                      !- Visible Absorptance

MATERIAL,
    EXTERIOR WALL OUTSIDE MATERIAL,    !- Name
    MediumSmooth,             !- Roughness
    0.01,                     !- Thickness
    5.0,                      !- Conductivity
    1800,                     !- Density
    1000,                     !- Specific Heat
    0.1,                      !- Thermal Absorptance
    0.7,                      !- Solar Absorptance
    1.0;                      !- Visible Absorptance

MATERIAL,
    EXTERIOR WALL MIDDLE MATERIAL,    !- Name
    MediumRough,              !- Roughness
    0.1636009009009009,       !- Thickness
    0.036,                    !- Conductivity
    50,                       !- Density
    1030,                     !- Specific Heat
    0.1,                      !- Thermal Absorptance
    0.7,                      !- Solar Absorptance
    1.0;                      !- Visible Absorptance

MATERIAL,
    EXTERIOR WALL INSIDE MATERIAL,    !- Name
    MediumSmooth,             !- Roughness
    0.01,                     !- Thickness
    5.0,                      !- Conductivity
    800,                      !- Density
    1090,                     !- Specific Heat
    0.1,                      !- Thermal Absorptance
    0.4,                      !- Solar Absorptance
    0.5;                      !- Visible Absorptance

MATERIAL,
    INTERIOR FLOOR/CEILING CEILING MATERIAL,    !- Name
    MediumSmooth,             !- Roughness
    0.1,                      !- Thickness
    0.2,                      !- Conductivity
    368,                      !- Density
    590,                      !- Specific Heat
    0.9,                      !- Thermal Absorptance
    0.3,                      !- Solar Absorptance
    0.30000000000000004;      !- Visible Absorptance

MATERIAL,
    INTERIOR FLOOR/CEILING FLOOR MATERIAL,    !- Name
    MediumRough,              !- Roughness
    0.1,                      !- Thickness
    0.2,                      !- Conductivity
    1280,                     !- Density
    840,                      !- Specific Heat
    0.9,                      !- Thermal Absorptance
    0.5,                      !- Solar Absorptance
    0.8;                      !- Visible Absorptance

MATERIAL,
    EXTERIOR FLOOR OUTSIDE MATERIAL,    !- Name
    MediumRough,              !- Roughness
    0.01,                     !- Thickness
    5,                        !- Conductivity
    1000,                     !- Density
    1210,                     !- Specific Heat
    0.9,                      !- Thermal Absorptance
    0.7,                      !- Solar Absorptance
    0.7;                      !- Visible Absorptance

MATERIAL,
    EXTERIOR FLOOR MIDDLE MATERIAL,    !- Name
    MediumRough,              !- Roughness
    0.1636009009009009,       !- Thickness
    0.036,                    !- Conductivity
    700,                      !- Density
    1030,                     !- Specific Heat
    0.1,                      !- Thermal Absorptance
    0.7,                      !- Solar Absorptance
    1.0;                      !- Visible Absorptance

MATERIAL,
    EXTERIOR FLOOR INSIDE MATERIAL,    !- Name
    MediumRough,              !- Roughness
    0.01,                     !- Thickness
    5,                        !- Conductivity
    2240,                     !- Density
    900,                      !- Specific Heat
    0.9,                      !- Thermal Absorptance
    0.7,                      !- Solar Absorptance
    0.8;                      !- Visible Absorptance

MATERIAL,
    EXTERIOR ROOF OUTSIDE MATERIAL,    !- Name
    MediumRough,              !- Roughness
    0.01,                     !- Thickness
    5,                        !- Conductivity
    1800,                     !- Density
    1000,                     !- Specific Heat
    0.9,                      !- Thermal Absorptance
    0.5,                      !- Solar Absorptance
    0.5;                      !- Visible Absorptance

MATERIAL,
    EXTERIOR ROOF MIDDLE MATERIAL,    !- Name
    MediumRough,              !- Roughness
    0.20015885885885887,      !- Thickness
    0.036,                    !- Conductivity
    50,                       !- Density
    1030,                     !- Specific Heat
    0.9,                      !- Thermal Absorptance
    0.7,                      !- Solar Absorptance
    0.7;                      !- Visible Absorptance

MATERIAL,
    EXTERIOR ROOF INSIDE MATERIAL,    !- Name
    MediumSmooth,             !- Roughness
    0.01,                     !- Thickness
    5,                        !- Conductivity
    250,                      !- Density
    1000,                     !- Specific Heat
    0.9,                      !- Thermal Absorptance
    0.3,                      !- Solar Absorptance
    0.30000000000000004;      !- Visible Absorptance

MATERIAL,
    AIR WALL MATERIAL,        !- Name
    Smooth,                   !- Roughness
    0.002,                    !- Thickness
    0.0262,                   !- Conductivity
    1.225,                    !- Density
    1000,                     !- Specific Heat
    0.001,                    !- Thermal Absorptance
    0.001,                    !- Solar Absorptance
    0.001;                    !- Visible Absorptance

MATERIAL:AIRGAP,
    INTERIOR FLOOR/CEILING MIDDLE MATERIAL,    !- Name
    0.15;                     !- Thermal Resistance

WINDOWMATERIAL:SIMPLEGLAZINGSYSTEM,
    EXTERIOR WINDOW MATERIAL,    !- Name
    1.6,                      !- UFactor
    0.7158906882591093,       !- Solar Heat Gain Coefficient
    0.65;                     !- Visible Transmittance

WINDOWMATERIAL:SIMPLEGLAZINGSYSTEM,
    EXTERIOR SKYLIGHT MATERIAL,    !- Name
    1.6,                      !- UFactor
    0.7158906882591093,       !- Solar Heat Gain Coefficient
    0.65;                     !- Visible Transmittance

WINDOWMATERIAL:SIMPLEGLAZINGSYSTEM,
    INTERIOR WINDOW MATERIAL,    !- Name
    5.8,                      !- UFactor
    0.95,                     !- Solar Heat Gain Coefficient
    0.9;                      !- Visible Transmittance

CONSTRUCTION,
    INTERIOR WALL,            !- Name
    INTERIOR WALL OUTSIDE MATERIAL,    !- Outside Layer
    INTERIOR WALL OUTSIDE MATERIAL;    !- Layer 2

CONSTRUCTION,
    EXTERIOR WALL,            !- Name
    EXTERIOR WALL OUTSIDE MATERIAL,    !- Outside Layer
    EXTERIOR WALL MIDDLE MATERIAL,    !- Layer 2
    EXTERIOR WALL INSIDE MATERIAL;    !- Layer 3

CONSTRUCTION,
    INTERIOR FLOOR,           !- Name
    INTERIOR FLOOR/CEILING CEILING MATERIAL,    !- Outside Layer
    INTERIOR FLOOR/CEILING FLOOR MATERIAL;    !- Layer 2

CONSTRUCTION,
    EXTERIOR FLOOR,           !- Name
    EXTERIOR FLOOR OUTSIDE MATERIAL,    !- Outside Layer
    EXTERIOR FLOOR MIDDLE MATERIAL,    !- Layer 2
    EXTERIOR FLOOR INSIDE MATERIAL;    !- Layer 3

CONSTRUCTION,
    INTERIOR CEILING,         !- Name
    INTERIOR FLOOR/CEILING FLOOR MATERIAL,    !- Outside Layer
    INTERIOR FLOOR/CEILING CEILING MATERIAL;    !- Layer 2

CONSTRUCTION,
    EXTERIOR ROOF,            !- Name
    EXTERIOR ROOF OUTSIDE MATERIAL,    !- Outside Layer
    EXTERIOR ROOF MIDDLE MATERIAL,    !- Layer 2
    EXTERIOR ROOF INSIDE MATERIAL;    !- Layer 3

CONSTRUCTION,
    AIR WALL,                 !- Name
    AIR WALL MATERIAL;        !- Outside Layer

CONSTRUCTION,
    EXTERIOR WINDOW,          !- Name
    EXTERIOR WINDOW MATERIAL;    !- Outside Layer

CONSTRUCTION,
    INTERIOR WINDOW,          !- Name
    INTERIOR WINDOW MATERIAL;    !- Outside Layer

GlobalGeometryRules,
    LowerLeftCorner,          !- Starting Vertex Position
    CounterClockWise,         !- Vertex Entry Direction
    Relative,                 !- Coordinate System
    Relative,                 !- Daylighting Reference Point Coordinate System
    Relative;                 !- Rectangular Surface Coordinate System

Zone,
    zone1,                    !- Name
    0.0,                      !- Direction of Relative North
    0.0,                      !- X Origin
    0.0,                      !- Y Origin
    0.0,                      !- Z Origin
    1;                        !- Type

Zone,
    zone2,                    !- Name
    0.0,                      !- Direction of Relative North
    0.0,                      !- X Origin
    0.0,                      !- Y Origin
    0.0,                      !- Z Origin
    1;                        !- Type

Zone,
    zone3,                    !- Name
    0.0,                      !- Direction of Relative North
    0.0,                      !- X Origin
    0.0,                      !- Y Origin
    0.0,                      !- Z Origin
    1;                        !- Type

Zone,
    zone4,                    !- Name
    0.0,                      !- Direction of Relative North
    0.0,                      !- X Origin
    0.0,                      !- Y Origin
    0.0,                      !- Z Origin
    1;                        !- Type

ZONELIST,
    AllZones,                 !- Name
    zone1,                    !- Zone 1 Name
    zone2,                    !- Zone 2 Name
    zone3,                    !- Zone 3 Name
    zone4;                    !- Zone 4 Name

BuildingSurface:Detailed,
    f4a76ab29bb5469dbdba,     !- Name
    WALL,                     !- Surface Type
    Interior Wall,            !- Construction Name
    zone1,                    !- Zone Name
    SURFACE,                  !- Outside Boundary Condition
    4ab0dfabf2804446bf34,     !- Outside Boundary Condition Object
    NoSun,                    !- Sun Exposure
    NoWind,                   !- Wind Exposure
    autocalculate,            !- View Factor to Ground
    4.0,                      !- Number of Vertices
    5.0,                      !- Vertex 1 Xcoordinate
    0.0,                      !- Vertex 1 Ycoordinate
    0.0,                      !- Vertex 1 Zcoordinate
    5.0,                      !- Vertex 2 Xcoordinate
    5.0,                      !- Vertex 2 Ycoordinate
    0.0,                      !- Vertex 2 Zcoordinate
    5.0,                      !- Vertex 3 Xcoordinate
    5.0,                      !- Vertex 3 Ycoordinate
    3.0,                      !- Vertex 3 Zcoordinate
    5.0,                      !- Vertex 4 Xcoordinate
    0.0,                      !- Vertex 4 Ycoordinate
    3.0;                      !- Vertex 4 Zcoordinate

BuildingSurface:Detailed,
    03e8a22ca36a4f73b0ce_srfP_0,    !- Name
    WALL,                     !- Surface Type
    Interior Wall,            !- Construction Name
    zone1,                    !- Zone Name
    SURFACE,                  !- Outside Boundary Condition
    c47c31327e9f4119bbf5_srfP_0,    !- Outside Boundary Condition Object
    NoSun,                    !- Sun Exposure
    NoWind,                   !- Wind Exposure
    autocalculate,            !- View Factor to Ground
    3.0,                      !- Number of Vertices
    0.966653,                 !- Vertex 1 Xcoordinate
    5.0,                      !- Vertex 1 Ycoordinate
    0.268178,                 !- Vertex 1 Zcoordinate
    0.0,                      !- Vertex 2 Xcoordinate
    5.0,                      !- Vertex 2 Ycoordinate
    0.0,                      !- Vertex 2 Zcoordinate
    0.0,                      !- Vertex 3 Xcoordinate
    5.0,                      !- Vertex 3 Ycoordinate
    3.0;                      !- Vertex 3 Zcoordinate

BuildingSurface:Detailed,
    03e8a22ca36a4f73b0ce_srfP_1,    !- Name
    WALL,                     !- Surface Type
    Interior Wall,            !- Construction Name
    zone1,                    !- Zone Name
    SURFACE,                  !- Outside Boundary Condition
    c47c31327e9f4119bbf5_srfP_1,    !- Outside Boundary Condition Object
    NoSun,                    !- Sun Exposure
    NoWind,                   !- Wind Exposure
    autocalculate,            !- View Factor to Ground
    3.0,                      !- Number of Vertices
    0.966653,                 !- Vertex 1 Xcoordinate
    5.0,                      !- Vertex 1 Ycoordinate
    0.268178,                 !- Vertex 1 Zcoordinate
    0.0,                      !- Vertex 2 Xcoordinate
    5.0,                      !- Vertex 2 Ycoordinate
    3.0,                      !- Vertex 2 Zcoordinate
    0.966653,                 !- Vertex 3 Xcoordinate
    5.0,                      !- Vertex 3 Ycoordinate
    2.26818;                  !- Vertex 3 Zcoordinate

BuildingSurface:Detailed,
    03e8a22ca36a4f73b0ce_srfP_2,    !- Name
    WALL,                     !- Surface Type
    Interior Wall,            !- Construction Name
    zone1,                    !- Zone Name
    SURFACE,                  !- Outside Boundary Condition
    c47c31327e9f4119bbf5_srfP_2,    !- Outside Boundary Condition Object
    NoSun,                    !- Sun Exposure
    NoWind,                   !- Wind Exposure
    autocalculate,            !- View Factor to Ground
    3.0,                      !- Number of Vertices
    0.0,                      !- Vertex 1 Xcoordinate
    5.0,                      !- Vertex 1 Ycoordinate
    0.0,                      !- Vertex 1 Zcoordinate
    0.966653,                 !- Vertex 2 Xcoordinate
    5.0,                      !- Vertex 2 Ycoordinate
    0.268178,                 !- Vertex 2 Zcoordinate
    4.04649,                  !- Vertex 3 Xcoordinate
    5.0,                      !- Vertex 3 Ycoordinate
    0.268178;                 !- Vertex 3 Zcoordinate

BuildingSurface:Detailed,
    03e8a22ca36a4f73b0ce_srfP_3,    !- Name
    WALL,                     !- Surface Type
    Interior Wall,            !- Construction Name
    zone1,                    !- Zone Name
    SURFACE,                  !- Outside Boundary Condition
    c47c31327e9f4119bbf5_srfP_3,    !- Outside Boundary Condition Object
    NoSun,                    !- Sun Exposure
    NoWind,                   !- Wind Exposure
    autocalculate,            !- View Factor to Ground
    3.0,                      !- Number of Vertices
    0.0,                      !- Vertex 1 Xcoordinate
    5.0,                      !- Vertex 1 Ycoordinate
    0.0,                      !- Vertex 1 Zcoordinate
    4.04649,                  !- Vertex 2 Xcoordinate
    5.0,                      !- Vertex 2 Ycoordinate
    0.268178,                 !- Vertex 2 Zcoordinate
    5.0,                      !- Vertex 3 Xcoordinate
    5.0,                      !- Vertex 3 Ycoordinate
    0.0;                      !- Vertex 3 Zcoordinate

BuildingSurface:Detailed,
    03e8a22ca36a4f73b0ce_srfP_4,    !- Name
    WALL,                     !- Surface Type
    Interior Wall,            !- Construction Name
    zone1,                    !- Zone Name
    SURFACE,                  !- Outside Boundary Condition
    c47c31327e9f4119bbf5_srfP_4,    !- Outside Boundary Condition Object
    NoSun,                    !- Sun Exposure
    NoWind,                   !- Wind Exposure
    autocalculate,            !- View Factor to Ground
    3.0,                      !- Number of Vertices
    5.0,                      !- Vertex 1 Xcoordinate
    5.0,                      !- Vertex 1 Ycoordinate
    3.0,                      !- Vertex 1 Zcoordinate
    4.04649,                  !- Vertex 2 Xcoordinate
    5.0,                      !- Vertex 2 Ycoordinate
    2.26818,                  !- Vertex 2 Zcoordinate
    0.966653,                 !- Vertex 3 Xcoordinate
    5.0,                      !- Vertex 3 Ycoordinate
    2.26818;                  !- Vertex 3 Zcoordinate

BuildingSurface:Detailed,
    03e8a22ca36a4f73b0ce_srfP_5,    !- Name
    WALL,                     !- Surface Type
    Interior Wall,            !- Construction Name
    zone1,                    !- Zone Name
    SURFACE,                  !- Outside Boundary Condition
    c47c31327e9f4119bbf5_srfP_5,    !- Outside Boundary Condition Object
    NoSun,                    !- Sun Exposure
    NoWind,                   !- Wind Exposure
    autocalculate,            !- View Factor to Ground
    3.0,                      !- Number of Vertices
    5.0,                      !- Vertex 1 Xcoordinate
    5.0,                      !- Vertex 1 Ycoordinate
    3.0,                      !- Vertex 1 Zcoordinate
    0.966653,                 !- Vertex 2 Xcoordinate
    5.0,                      !- Vertex 2 Ycoordinate
    2.26818,                  !- Vertex 2 Zcoordinate
    0.0,                      !- Vertex 3 Xcoordinate
    5.0,                      !- Vertex 3 Ycoordinate
    3.0;                      !- Vertex 3 Zcoordinate

BuildingSurface:Detailed,
    03e8a22ca36a4f73b0ce_srfP_6,    !- Name
    WALL,                     !- Surface Type
    Interior Wall,            !- Construction Name
    zone1,                    !- Zone Name
    SURFACE,                  !- Outside Boundary Condition
    c47c31327e9f4119bbf5_srfP_6,    !- Outside Boundary Condition Object
    NoSun,                    !- Sun Exposure
    NoWind,                   !- Wind Exposure
    autocalculate,            !- View Factor to Ground
    3.0,                      !- Number of Vertices
    4.04649,                  !- Vertex 1 Xcoordinate
    5.0,                      !- Vertex 1 Ycoordinate
    2.26818,                  !- Vertex 1 Zcoordinate
    5.0,                      !- Vertex 2 Xcoordinate
    5.0,                      !- Vertex 2 Ycoordinate
    3.0,                      !- Vertex 2 Zcoordinate
    5.0,                      !- Vertex 3 Xcoordinate
    5.0,                      !- Vertex 3 Ycoordinate
    0.0;                      !- Vertex 3 Zcoordinate

BuildingSurface:Detailed,
    03e8a22ca36a4f73b0ce_srfP_7,    !- Name
    WALL,                     !- Surface Type
    Interior Wall,            !- Construction Name
    zone1,                    !- Zone Name
    SURFACE,                  !- Outside Boundary Condition
    c47c31327e9f4119bbf5_srfP_7,    !- Outside Boundary Condition Object
    NoSun,                    !- Sun Exposure
    NoWind,                   !- Wind Exposure
    autocalculate,            !- View Factor to Ground
    3.0,                      !- Number of Vertices
    4.04649,                  !- Vertex 1 Xcoordinate
    5.0,                      !- Vertex 1 Ycoordinate
    2.26818,                  !- Vertex 1 Zcoordinate
    5.0,                      !- Vertex 2 Xcoordinate
    5.0,                      !- Vertex 2 Ycoordinate
    0.0,                      !- Vertex 2 Zcoordinate
    4.04649,                  !- Vertex 3 Xcoordinate
    5.0,                      !- Vertex 3 Ycoordinate
    0.268178;                 !- Vertex 3 Zcoordinate

BuildingSurface:Detailed,
    c1069e5d94494391a8e2,     !- Name
    WALL,                     !- Surface Type
    Exterior Wall,            !- Construction Name
    zone1,                    !- Zone Name
    Outdoors,                 !- Outside Boundary Condition
    ,                         !- Outside Boundary Condition Object
    SunExposed,               !- Sun Exposure
    WindExposed,              !- Wind Exposure
    autocalculate,            !- View Factor to Ground
    4.0,                      !- Number of Vertices
    0.0,                      !- Vertex 1 Xcoordinate
    0.0,                      !- Vertex 1 Ycoordinate
    0.0,                      !- Vertex 1 Zcoordinate
    5.0,                      !- Vertex 2 Xcoordinate
    0.0,                      !- Vertex 2 Ycoordinate
    0.0,                      !- Vertex 2 Zcoordinate
    5.0,                      !- Vertex 3 Xcoordinate
    0.0,                      !- Vertex 3 Ycoordinate
    3.0,                      !- Vertex 3 Zcoordinate
    0.0,                      !- Vertex 4 Xcoordinate
    0.0,                      !- Vertex 4 Ycoordinate
    3.0;                      !- Vertex 4 Zcoordinate

BuildingSurface:Detailed,
    ab7813722c2e43afa67e,     !- Name
    WALL,                     !- Surface Type
    Exterior Wall,            !- Construction Name
    zone1,                    !- Zone Name
    Outdoors,                 !- Outside Boundary Condition
    ,                         !- Outside Boundary Condition Object
    SunExposed,               !- Sun Exposure
    WindExposed,              !- Wind Exposure
    autocalculate,            !- View Factor to Ground
    4.0,                      !- Number of Vertices
    0.0,                      !- Vertex 1 Xcoordinate
    5.0,                      !- Vertex 1 Ycoordinate
    0.0,                      !- Vertex 1 Zcoordinate
    0.0,                      !- Vertex 2 Xcoordinate
    0.0,                      !- Vertex 2 Ycoordinate
    0.0,                      !- Vertex 2 Zcoordinate
    0.0,                      !- Vertex 3 Xcoordinate
    0.0,                      !- Vertex 3 Ycoordinate
    3.0,                      !- Vertex 3 Zcoordinate
    0.0,                      !- Vertex 4 Xcoordinate
    5.0,                      !- Vertex 4 Ycoordinate
    3.0;                      !- Vertex 4 Zcoordinate

BuildingSurface:Detailed,
    ac59df43c7704d879f07,     !- Name
    WALL,                     !- Surface Type
    Air Wall,                 !- Construction Name
    zone1,                    !- Zone Name
    SURFACE,                  !- Outside Boundary Condition
    d958334b8a944b08b69b,     !- Outside Boundary Condition Object
    NoSun,                    !- Sun Exposure
    NoWind,                   !- Wind Exposure
    autocalculate,            !- View Factor to Ground
    4.0,                      !- Number of Vertices
    4.046487331390381,        !- Vertex 1 Xcoordinate
    5.0,                      !- Vertex 1 Ycoordinate
    0.268178254365921,        !- Vertex 1 Zcoordinate
    0.9666532874107361,       !- Vertex 2 Xcoordinate
    5.0,                      !- Vertex 2 Ycoordinate
    0.268178254365921,        !- Vertex 2 Zcoordinate
    0.9666532874107361,       !- Vertex 3 Xcoordinate
    5.0,                      !- Vertex 3 Ycoordinate
    2.2681782245635986,       !- Vertex 3 Zcoordinate
    4.046487331390381,        !- Vertex 4 Xcoordinate
    5.0,                      !- Vertex 4 Ycoordinate
    2.2681782245635986;       !- Vertex 4 Zcoordinate

BuildingSurface:Detailed,
    dd07a38a7b4a4721a88b,     !- Name
    CEILING,                  !- Surface Type
    Interior Ceiling,         !- Construction Name
    zone1,                    !- Zone Name
    Outdoors,                 !- Outside Boundary Condition
    ,                         !- Outside Boundary Condition Object
    SunExposed,               !- Sun Exposure
    WindExposed,              !- Wind Exposure
    autocalculate,            !- View Factor to Ground
    4.0,                      !- Number of Vertices
    0.0,                      !- Vertex 1 Xcoordinate
    0.0,                      !- Vertex 1 Ycoordinate
    3.0,                      !- Vertex 1 Zcoordinate
    5.0,                      !- Vertex 2 Xcoordinate
    0.0,                      !- Vertex 2 Ycoordinate
    3.0,                      !- Vertex 2 Zcoordinate
    5.0,                      !- Vertex 3 Xcoordinate
    5.0,                      !- Vertex 3 Ycoordinate
    3.0,                      !- Vertex 3 Zcoordinate
    0.0,                      !- Vertex 4 Xcoordinate
    5.0,                      !- Vertex 4 Ycoordinate
    3.0;                      !- Vertex 4 Zcoordinate

BuildingSurface:Detailed,
    6f12f103ada14a399725,     !- Name
    FLOOR,                    !- Surface Type
    Interior Floor,           !- Construction Name
    zone1,                    !- Zone Name
    outdoors,                 !- Outside Boundary Condition
    ,                         !- Outside Boundary Condition Object
    NoSun,                    !- Sun Exposure
    NoWind,                   !- Wind Exposure
    autocalculate,            !- View Factor to Ground
    4.0,                      !- Number of Vertices
    0.0,                      !- Vertex 1 Xcoordinate
    0.0,                      !- Vertex 1 Ycoordinate
    0.0,                      !- Vertex 1 Zcoordinate
    0.0,                      !- Vertex 2 Xcoordinate
    5.0,                      !- Vertex 2 Ycoordinate
    0.0,                      !- Vertex 2 Zcoordinate
    5.0,                      !- Vertex 3 Xcoordinate
    5.0,                      !- Vertex 3 Ycoordinate
    0.0,                      !- Vertex 3 Zcoordinate
    5.0,                      !- Vertex 4 Xcoordinate
    0.0,                      !- Vertex 4 Ycoordinate
    0.0;                      !- Vertex 4 Zcoordinate

BuildingSurface:Detailed,
    c72cdf718e6d4516ab3e_srfP_0,    !- Name
    WALL,                     !- Surface Type
    Interior Wall,            !- Construction Name
    zone2,                    !- Zone Name
    SURFACE,                  !- Outside Boundary Condition
    6d16a0bf09bd49578692_srfP_0,    !- Outside Boundary Condition Object
    NoSun,                    !- Sun Exposure
    NoWind,                   !- Wind Exposure
    autocalculate,            !- View Factor to Ground
    3.0,                      !- Number of Vertices
    5.56122,                  !- Vertex 1 Xcoordinate
    5.0,                      !- Vertex 1 Ycoordinate
    0.742873,                 !- Vertex 1 Zcoordinate
    5.56122,                  !- Vertex 2 Xcoordinate
    5.0,                      !- Vertex 2 Ycoordinate
    0.260446,                 !- Vertex 2 Zcoordinate
    5.0,                      !- Vertex 3 Xcoordinate
    5.0,                      !- Vertex 3 Ycoordinate
    0.0;                      !- Vertex 3 Zcoordinate

BuildingSurface:Detailed,
    c72cdf718e6d4516ab3e_srfP_1,    !- Name
    WALL,                     !- Surface Type
    Interior Wall,            !- Construction Name
    zone2,                    !- Zone Name
    SURFACE,                  !- Outside Boundary Condition
    6d16a0bf09bd49578692_srfP_1,    !- Outside Boundary Condition Object
    NoSun,                    !- Sun Exposure
    NoWind,                   !- Wind Exposure
    autocalculate,            !- View Factor to Ground
    3.0,                      !- Number of Vertices
    6.93435,                  !- Vertex 1 Xcoordinate
    5.0,                      !- Vertex 1 Ycoordinate
    0.260446,                 !- Vertex 1 Zcoordinate
    5.0,                      !- Vertex 2 Xcoordinate
    5.0,                      !- Vertex 2 Ycoordinate
    0.0,                      !- Vertex 2 Zcoordinate
    5.56122,                  !- Vertex 3 Xcoordinate
    5.0,                      !- Vertex 3 Ycoordinate
    0.260446;                 !- Vertex 3 Zcoordinate

BuildingSurface:Detailed,
    c72cdf718e6d4516ab3e_srfP_2,    !- Name
    WALL,                     !- Surface Type
    Interior Wall,            !- Construction Name
    zone2,                    !- Zone Name
    SURFACE,                  !- Outside Boundary Condition
    6d16a0bf09bd49578692_srfP_2,    !- Outside Boundary Condition Object
    NoSun,                    !- Sun Exposure
    NoWind,                   !- Wind Exposure
    autocalculate,            !- View Factor to Ground
    3.0,                      !- Number of Vertices
    6.93435,                  !- Vertex 1 Xcoordinate
    5.0,                      !- Vertex 1 Ycoordinate
    0.742873,                 !- Vertex 1 Zcoordinate
    5.56122,                  !- Vertex 2 Xcoordinate
    5.0,                      !- Vertex 2 Ycoordinate
    0.742873,                 !- Vertex 2 Zcoordinate
    5.0,                      !- Vertex 3 Xcoordinate
    5.0,                      !- Vertex 3 Ycoordinate
    3.0;                      !- Vertex 3 Zcoordinate

BuildingSurface:Detailed,
    c72cdf718e6d4516ab3e_srfP_3,    !- Name
    WALL,                     !- Surface Type
    Interior Wall,            !- Construction Name
    zone2,                    !- Zone Name
    SURFACE,                  !- Outside Boundary Condition
    6d16a0bf09bd49578692_srfP_3,    !- Outside Boundary Condition Object
    NoSun,                    !- Sun Exposure
    NoWind,                   !- Wind Exposure
    autocalculate,            !- View Factor to Ground
    3.0,                      !- Number of Vertices
    5.0,                      !- Vertex 1 Xcoordinate
    5.0,                      !- Vertex 1 Ycoordinate
    0.0,                      !- Vertex 1 Zcoordinate
    5.0,                      !- Vertex 2 Xcoordinate
    5.0,                      !- Vertex 2 Ycoordinate
    3.0,                      !- Vertex 2 Zcoordinate
    5.56122,                  !- Vertex 3 Xcoordinate
    5.0,                      !- Vertex 3 Ycoordinate
    0.742873;                 !- Vertex 3 Zcoordinate

BuildingSurface:Detailed,
    c72cdf718e6d4516ab3e_srfP_4,    !- Name
    WALL,                     !- Surface Type
    Interior Wall,            !- Construction Name
    zone2,                    !- Zone Name
    SURFACE,                  !- Outside Boundary Condition
    6d16a0bf09bd49578692_srfP_4,    !- Outside Boundary Condition Object
    NoSun,                    !- Sun Exposure
    NoWind,                   !- Wind Exposure
    autocalculate,            !- View Factor to Ground
    3.0,                      !- Number of Vertices
    6.93435,                  !- Vertex 1 Xcoordinate
    5.0,                      !- Vertex 1 Ycoordinate
    0.742873,                 !- Vertex 1 Zcoordinate
    10.0,                     !- Vertex 2 Xcoordinate
    5.0,                      !- Vertex 2 Ycoordinate
    0.0,                      !- Vertex 2 Zcoordinate
    6.93435,                  !- Vertex 3 Xcoordinate
    5.0,                      !- Vertex 3 Ycoordinate
    0.260446;                 !- Vertex 3 Zcoordinate

BuildingSurface:Detailed,
    c72cdf718e6d4516ab3e_srfP_5,    !- Name
    WALL,                     !- Surface Type
    Interior Wall,            !- Construction Name
    zone2,                    !- Zone Name
    SURFACE,                  !- Outside Boundary Condition
    6d16a0bf09bd49578692_srfP_5,    !- Outside Boundary Condition Object
    NoSun,                    !- Sun Exposure
    NoWind,                   !- Wind Exposure
    autocalculate,            !- View Factor to Ground
    3.0,                      !- Number of Vertices
    5.0,                      !- Vertex 1 Xcoordinate
    5.0,                      !- Vertex 1 Ycoordinate
    0.0,                      !- Vertex 1 Zcoordinate
    6.93435,                  !- Vertex 2 Xcoordinate
    5.0,                      !- Vertex 2 Ycoordinate
    0.260446,                 !- Vertex 2 Zcoordinate
    10.0,                     !- Vertex 3 Xcoordinate
    5.0,                      !- Vertex 3 Ycoordinate
    0.0;                      !- Vertex 3 Zcoordinate

BuildingSurface:Detailed,
    c72cdf718e6d4516ab3e_srfP_6,    !- Name
    WALL,                     !- Surface Type
    Interior Wall,            !- Construction Name
    zone2,                    !- Zone Name
    SURFACE,                  !- Outside Boundary Condition
    6d16a0bf09bd49578692_srfP_6,    !- Outside Boundary Condition Object
    NoSun,                    !- Sun Exposure
    NoWind,                   !- Wind Exposure
    autocalculate,            !- View Factor to Ground
    3.0,                      !- Number of Vertices
    5.0,                      !- Vertex 1 Xcoordinate
    5.0,                      !- Vertex 1 Ycoordinate
    3.0,                      !- Vertex 1 Zcoordinate
    10.0,                     !- Vertex 2 Xcoordinate
    5.0,                      !- Vertex 2 Ycoordinate
    3.0,                      !- Vertex 2 Zcoordinate
    6.93435,                  !- Vertex 3 Xcoordinate
    5.0,                      !- Vertex 3 Ycoordinate
    0.742873;                 !- Vertex 3 Zcoordinate

BuildingSurface:Detailed,
    c72cdf718e6d4516ab3e_srfP_7,    !- Name
    WALL,                     !- Surface Type
    Interior Wall,            !- Construction Name
    zone2,                    !- Zone Name
    SURFACE,                  !- Outside Boundary Condition
    6d16a0bf09bd49578692_srfP_7,    !- Outside Boundary Condition Object
    NoSun,                    !- Sun Exposure
    NoWind,                   !- Wind Exposure
    autocalculate,            !- View Factor to Ground
    3.0,                      !- Number of Vertices
    10.0,                     !- Vertex 1 Xcoordinate
    5.0,                      !- Vertex 1 Ycoordinate
    0.0,                      !- Vertex 1 Zcoordinate
    6.93435,                  !- Vertex 2 Xcoordinate
    5.0,                      !- Vertex 2 Ycoordinate
    0.742873,                 !- Vertex 2 Zcoordinate
    10.0,                     !- Vertex 3 Xcoordinate
    5.0,                      !- Vertex 3 Ycoordinate
    3.0;                      !- Vertex 3 Zcoordinate

BuildingSurface:Detailed,
    ed3f9ac6258a4fb2b24f,     !- Name
    WALL,                     !- Surface Type
    Exterior Wall,            !- Construction Name
    zone2,                    !- Zone Name
    Outdoors,                 !- Outside Boundary Condition
    ,                         !- Outside Boundary Condition Object
    SunExposed,               !- Sun Exposure
    WindExposed,              !- Wind Exposure
    autocalculate,            !- View Factor to Ground
    4.0,                      !- Number of Vertices
    10.0,                     !- Vertex 1 Xcoordinate
    0.0,                      !- Vertex 1 Ycoordinate
    0.0,                      !- Vertex 1 Zcoordinate
    10.0,                     !- Vertex 2 Xcoordinate
    5.0,                      !- Vertex 2 Ycoordinate
    0.0,                      !- Vertex 2 Zcoordinate
    10.0,                     !- Vertex 3 Xcoordinate
    5.0,                      !- Vertex 3 Ycoordinate
    3.0,                      !- Vertex 3 Zcoordinate
    10.0,                     !- Vertex 4 Xcoordinate
    0.0,                      !- Vertex 4 Ycoordinate
    3.0;                      !- Vertex 4 Zcoordinate

BuildingSurface:Detailed,
    4ab0dfabf2804446bf34,     !- Name
    WALL,                     !- Surface Type
    Interior Wall,            !- Construction Name
    zone2,                    !- Zone Name
    SURFACE,                  !- Outside Boundary Condition
    f4a76ab29bb5469dbdba,     !- Outside Boundary Condition Object
    NoSun,                    !- Sun Exposure
    NoWind,                   !- Wind Exposure
    autocalculate,            !- View Factor to Ground
    4.0,                      !- Number of Vertices
    5.0,                      !- Vertex 1 Xcoordinate
    5.0,                      !- Vertex 1 Ycoordinate
    0.0,                      !- Vertex 1 Zcoordinate
    5.0,                      !- Vertex 2 Xcoordinate
    0.0,                      !- Vertex 2 Ycoordinate
    0.0,                      !- Vertex 2 Zcoordinate
    5.0,                      !- Vertex 3 Xcoordinate
    0.0,                      !- Vertex 3 Ycoordinate
    3.0,                      !- Vertex 3 Zcoordinate
    5.0,                      !- Vertex 4 Xcoordinate
    5.0,                      !- Vertex 4 Ycoordinate
    3.0;                      !- Vertex 4 Zcoordinate

BuildingSurface:Detailed,
    3fe1e66b777849c98acd,     !- Name
    WALL,                     !- Surface Type
    Exterior Wall,            !- Construction Name
    zone2,                    !- Zone Name
    Outdoors,                 !- Outside Boundary Condition
    ,                         !- Outside Boundary Condition Object
    SunExposed,               !- Sun Exposure
    WindExposed,              !- Wind Exposure
    autocalculate,            !- View Factor to Ground
    4.0,                      !- Number of Vertices
    5.0,                      !- Vertex 1 Xcoordinate
    0.0,                      !- Vertex 1 Ycoordinate
    0.0,                      !- Vertex 1 Zcoordinate
    10.0,                     !- Vertex 2 Xcoordinate
    0.0,                      !- Vertex 2 Ycoordinate
    0.0,                      !- Vertex 2 Zcoordinate
    10.0,                     !- Vertex 3 Xcoordinate
    0.0,                      !- Vertex 3 Ycoordinate
    3.0,                      !- Vertex 3 Zcoordinate
    5.0,                      !- Vertex 4 Xcoordinate
    0.0,                      !- Vertex 4 Ycoordinate
    3.0;                      !- Vertex 4 Zcoordinate

BuildingSurface:Detailed,
    0c0d61db26514946b207,     !- Name
    WALL,                     !- Surface Type
    Air Wall,                 !- Construction Name
    zone2,                    !- Zone Name
    SURFACE,                  !- Outside Boundary Condition
    1964af152f6140158462,     !- Outside Boundary Condition Object
    NoSun,                    !- Sun Exposure
    NoWind,                   !- Wind Exposure
    autocalculate,            !- View Factor to Ground
    4.0,                      !- Number of Vertices
    6.934353828430176,        !- Vertex 1 Xcoordinate
    5.0,                      !- Vertex 1 Ycoordinate
    0.2604462206363678,       !- Vertex 1 Zcoordinate
    5.561215400695801,        !- Vertex 2 Xcoordinate
    5.0,                      !- Vertex 2 Ycoordinate
    0.2604462206363678,       !- Vertex 2 Zcoordinate
    5.561215400695801,        !- Vertex 3 Xcoordinate
    5.0,                      !- Vertex 3 Ycoordinate
    0.7428733110427856,       !- Vertex 3 Zcoordinate
    6.934353828430176,        !- Vertex 4 Xcoordinate
    5.0,                      !- Vertex 4 Ycoordinate
    0.7428733110427856;       !- Vertex 4 Zcoordinate

BuildingSurface:Detailed,
    5a8aeb38fa4a41fdb140,     !- Name
    CEILING,                  !- Surface Type
    Interior Ceiling,         !- Construction Name
    zone2,                    !- Zone Name
    Outdoors,                 !- Outside Boundary Condition
    ,                         !- Outside Boundary Condition Object
    SunExposed,               !- Sun Exposure
    WindExposed,              !- Wind Exposure
    autocalculate,            !- View Factor to Ground
    4.0,                      !- Number of Vertices
    5.0,                      !- Vertex 1 Xcoordinate
    0.0,                      !- Vertex 1 Ycoordinate
    3.0,                      !- Vertex 1 Zcoordinate
    10.0,                     !- Vertex 2 Xcoordinate
    0.0,                      !- Vertex 2 Ycoordinate
    3.0,                      !- Vertex 2 Zcoordinate
    10.0,                     !- Vertex 3 Xcoordinate
    5.0,                      !- Vertex 3 Ycoordinate
    3.0,                      !- Vertex 3 Zcoordinate
    5.0,                      !- Vertex 4 Xcoordinate
    5.0,                      !- Vertex 4 Ycoordinate
    3.0;                      !- Vertex 4 Zcoordinate

BuildingSurface:Detailed,
    029b9ef63d75487c86af,     !- Name
    FLOOR,                    !- Surface Type
    Interior Floor,           !- Construction Name
    zone2,                    !- Zone Name
    outdoors,                 !- Outside Boundary Condition
    ,                         !- Outside Boundary Condition Object
    NoSun,                    !- Sun Exposure
    NoWind,                   !- Wind Exposure
    autocalculate,            !- View Factor to Ground
    4.0,                      !- Number of Vertices
    5.0,                      !- Vertex 1 Xcoordinate
    0.0,                      !- Vertex 1 Ycoordinate
    0.0,                      !- Vertex 1 Zcoordinate
    5.0,                      !- Vertex 2 Xcoordinate
    5.0,                      !- Vertex 2 Ycoordinate
    0.0,                      !- Vertex 2 Zcoordinate
    10.0,                     !- Vertex 3 Xcoordinate
    5.0,                      !- Vertex 3 Ycoordinate
    0.0,                      !- Vertex 3 Zcoordinate
    10.0,                     !- Vertex 4 Xcoordinate
    0.0,                      !- Vertex 4 Ycoordinate
    0.0;                      !- Vertex 4 Zcoordinate

BuildingSurface:Detailed,
    c47c31327e9f4119bbf5_srfP_0,    !- Name
    WALL,                     !- Surface Type
    Interior Wall,            !- Construction Name
    zone3,                    !- Zone Name
    SURFACE,                  !- Outside Boundary Condition
    03e8a22ca36a4f73b0ce_srfP_0,    !- Outside Boundary Condition Object
    NoSun,                    !- Sun Exposure
    NoWind,                   !- Wind Exposure
    autocalculate,            !- View Factor to Ground
    3.0,                      !- Number of Vertices
    0.966653,                 !- Vertex 1 Xcoordinate
    5.0,                      !- Vertex 1 Ycoordinate
    0.268178,                 !- Vertex 1 Zcoordinate
    0.0,                      !- Vertex 2 Xcoordinate
    5.0,                      !- Vertex 2 Ycoordinate
    3.0,                      !- Vertex 2 Zcoordinate
    0.0,                      !- Vertex 3 Xcoordinate
    5.0,                      !- Vertex 3 Ycoordinate
    0.0;                      !- Vertex 3 Zcoordinate

BuildingSurface:Detailed,
    c47c31327e9f4119bbf5_srfP_1,    !- Name
    WALL,                     !- Surface Type
    Interior Wall,            !- Construction Name
    zone3,                    !- Zone Name
    SURFACE,                  !- Outside Boundary Condition
    03e8a22ca36a4f73b0ce_srfP_1,    !- Outside Boundary Condition Object
    NoSun,                    !- Sun Exposure
    NoWind,                   !- Wind Exposure
    autocalculate,            !- View Factor to Ground
    3.0,                      !- Number of Vertices
    0.966653,                 !- Vertex 1 Xcoordinate
    5.0,                      !- Vertex 1 Ycoordinate
    0.268178,                 !- Vertex 1 Zcoordinate
    0.966653,                 !- Vertex 2 Xcoordinate
    5.0,                      !- Vertex 2 Ycoordinate
    2.26818,                  !- Vertex 2 Zcoordinate
    0.0,                      !- Vertex 3 Xcoordinate
    5.0,                      !- Vertex 3 Ycoordinate
    3.0;                      !- Vertex 3 Zcoordinate

BuildingSurface:Detailed,
    c47c31327e9f4119bbf5_srfP_2,    !- Name
    WALL,                     !- Surface Type
    Interior Wall,            !- Construction Name
    zone3,                    !- Zone Name
    SURFACE,                  !- Outside Boundary Condition
    03e8a22ca36a4f73b0ce_srfP_2,    !- Outside Boundary Condition Object
    NoSun,                    !- Sun Exposure
    NoWind,                   !- Wind Exposure
    autocalculate,            !- View Factor to Ground
    3.0,                      !- Number of Vertices
    0.0,                      !- Vertex 1 Xcoordinate
    5.0,                      !- Vertex 1 Ycoordinate
    0.0,                      !- Vertex 1 Zcoordinate
    4.04649,                  !- Vertex 2 Xcoordinate
    5.0,                      !- Vertex 2 Ycoordinate
    0.268178,                 !- Vertex 2 Zcoordinate
    0.966653,                 !- Vertex 3 Xcoordinate
    5.0,                      !- Vertex 3 Ycoordinate
    0.268178;                 !- Vertex 3 Zcoordinate

BuildingSurface:Detailed,
    c47c31327e9f4119bbf5_srfP_3,    !- Name
    WALL,                     !- Surface Type
    Interior Wall,            !- Construction Name
    zone3,                    !- Zone Name
    SURFACE,                  !- Outside Boundary Condition
    03e8a22ca36a4f73b0ce_srfP_3,    !- Outside Boundary Condition Object
    NoSun,                    !- Sun Exposure
    NoWind,                   !- Wind Exposure
    autocalculate,            !- View Factor to Ground
    3.0,                      !- Number of Vertices
    0.0,                      !- Vertex 1 Xcoordinate
    5.0,                      !- Vertex 1 Ycoordinate
    0.0,                      !- Vertex 1 Zcoordinate
    5.0,                      !- Vertex 2 Xcoordinate
    5.0,                      !- Vertex 2 Ycoordinate
    0.0,                      !- Vertex 2 Zcoordinate
    4.04649,                  !- Vertex 3 Xcoordinate
    5.0,                      !- Vertex 3 Ycoordinate
    0.268178;                 !- Vertex 3 Zcoordinate

BuildingSurface:Detailed,
    c47c31327e9f4119bbf5_srfP_4,    !- Name
    WALL,                     !- Surface Type
    Interior Wall,            !- Construction Name
    zone3,                    !- Zone Name
    SURFACE,                  !- Outside Boundary Condition
    03e8a22ca36a4f73b0ce_srfP_4,    !- Outside Boundary Condition Object
    NoSun,                    !- Sun Exposure
    NoWind,                   !- Wind Exposure
    autocalculate,            !- View Factor to Ground
    3.0,                      !- Number of Vertices
    5.0,                      !- Vertex 1 Xcoordinate
    5.0,                      !- Vertex 1 Ycoordinate
    3.0,                      !- Vertex 1 Zcoordinate
    0.966653,                 !- Vertex 2 Xcoordinate
    5.0,                      !- Vertex 2 Ycoordinate
    2.26818,                  !- Vertex 2 Zcoordinate
    4.04649,                  !- Vertex 3 Xcoordinate
    5.0,                      !- Vertex 3 Ycoordinate
    2.26818;                  !- Vertex 3 Zcoordinate

BuildingSurface:Detailed,
    c47c31327e9f4119bbf5_srfP_5,    !- Name
    WALL,                     !- Surface Type
    Interior Wall,            !- Construction Name
    zone3,                    !- Zone Name
    SURFACE,                  !- Outside Boundary Condition
    03e8a22ca36a4f73b0ce_srfP_5,    !- Outside Boundary Condition Object
    NoSun,                    !- Sun Exposure
    NoWind,                   !- Wind Exposure
    autocalculate,            !- View Factor to Ground
    3.0,                      !- Number of Vertices
    5.0,                      !- Vertex 1 Xcoordinate
    5.0,                      !- Vertex 1 Ycoordinate
    3.0,                      !- Vertex 1 Zcoordinate
    0.0,                      !- Vertex 2 Xcoordinate
    5.0,                      !- Vertex 2 Ycoordinate
    3.0,                      !- Vertex 2 Zcoordinate
    0.966653,                 !- Vertex 3 Xcoordinate
    5.0,                      !- Vertex 3 Ycoordinate
    2.26818;                  !- Vertex 3 Zcoordinate

BuildingSurface:Detailed,
    c47c31327e9f4119bbf5_srfP_6,    !- Name
    WALL,                     !- Surface Type
    Interior Wall,            !- Construction Name
    zone3,                    !- Zone Name
    SURFACE,                  !- Outside Boundary Condition
    03e8a22ca36a4f73b0ce_srfP_6,    !- Outside Boundary Condition Object
    NoSun,                    !- Sun Exposure
    NoWind,                   !- Wind Exposure
    autocalculate,            !- View Factor to Ground
    3.0,                      !- Number of Vertices
    4.04649,                  !- Vertex 1 Xcoordinate
    5.0,                      !- Vertex 1 Ycoordinate
    2.26818,                  !- Vertex 1 Zcoordinate
    5.0,                      !- Vertex 2 Xcoordinate
    5.0,                      !- Vertex 2 Ycoordinate
    0.0,                      !- Vertex 2 Zcoordinate
    5.0,                      !- Vertex 3 Xcoordinate
    5.0,                      !- Vertex 3 Ycoordinate
    3.0;                      !- Vertex 3 Zcoordinate

BuildingSurface:Detailed,
    c47c31327e9f4119bbf5_srfP_7,    !- Name
    WALL,                     !- Surface Type
    Interior Wall,            !- Construction Name
    zone3,                    !- Zone Name
    SURFACE,                  !- Outside Boundary Condition
    03e8a22ca36a4f73b0ce_srfP_7,    !- Outside Boundary Condition Object
    NoSun,                    !- Sun Exposure
    NoWind,                   !- Wind Exposure
    autocalculate,            !- View Factor to Ground
    3.0,                      !- Number of Vertices
    4.04649,                  !- Vertex 1 Xcoordinate
    5.0,                      !- Vertex 1 Ycoordinate
    2.26818,                  !- Vertex 1 Zcoordinate
    4.04649,                  !- Vertex 2 Xcoordinate
    5.0,                      !- Vertex 2 Ycoordinate
    0.268178,                 !- Vertex 2 Zcoordinate
    5.0,                      !- Vertex 3 Xcoordinate
    5.0,                      !- Vertex 3 Ycoordinate
    0.0;                      !- Vertex 3 Zcoordinate

BuildingSurface:Detailed,
    a362597327b149ed8ed6,     !- Name
    WALL,                     !- Surface Type
    Exterior Wall,            !- Construction Name
    zone3,                    !- Zone Name
    Outdoors,                 !- Outside Boundary Condition
    ,                         !- Outside Boundary Condition Object
    SunExposed,               !- Sun Exposure
    WindExposed,              !- Wind Exposure
    autocalculate,            !- View Factor to Ground
    4.0,                      !- Number of Vertices
    0.0,                      !- Vertex 1 Xcoordinate
    10.0,                     !- Vertex 1 Ycoordinate
    0.0,                      !- Vertex 1 Zcoordinate
    0.0,                      !- Vertex 2 Xcoordinate
    5.0,                      !- Vertex 2 Ycoordinate
    0.0,                      !- Vertex 2 Zcoordinate
    0.0,                      !- Vertex 3 Xcoordinate
    5.0,                      !- Vertex 3 Ycoordinate
    3.0,                      !- Vertex 3 Zcoordinate
    0.0,                      !- Vertex 4 Xcoordinate
    10.0,                     !- Vertex 4 Ycoordinate
    3.0;                      !- Vertex 4 Zcoordinate

BuildingSurface:Detailed,
    360b53cff22b4defa605,     !- Name
    WALL,                     !- Surface Type
    Exterior Wall,            !- Construction Name
    zone3,                    !- Zone Name
    Outdoors,                 !- Outside Boundary Condition
    ,                         !- Outside Boundary Condition Object
    SunExposed,               !- Sun Exposure
    WindExposed,              !- Wind Exposure
    autocalculate,            !- View Factor to Ground
    4.0,                      !- Number of Vertices
    5.0,                      !- Vertex 1 Xcoordinate
    10.0,                     !- Vertex 1 Ycoordinate
    0.0,                      !- Vertex 1 Zcoordinate
    0.0,                      !- Vertex 2 Xcoordinate
    10.0,                     !- Vertex 2 Ycoordinate
    0.0,                      !- Vertex 2 Zcoordinate
    0.0,                      !- Vertex 3 Xcoordinate
    10.0,                     !- Vertex 3 Ycoordinate
    3.0,                      !- Vertex 3 Zcoordinate
    5.0,                      !- Vertex 4 Xcoordinate
    10.0,                     !- Vertex 4 Ycoordinate
    3.0;                      !- Vertex 4 Zcoordinate

BuildingSurface:Detailed,
    55209e64ce1342bcb279,     !- Name
    WALL,                     !- Surface Type
    Interior Wall,            !- Construction Name
    zone3,                    !- Zone Name
    SURFACE,                  !- Outside Boundary Condition
    9f3131f2400b42e68a3f,     !- Outside Boundary Condition Object
    NoSun,                    !- Sun Exposure
    NoWind,                   !- Wind Exposure
    autocalculate,            !- View Factor to Ground
    4.0,                      !- Number of Vertices
    5.0,                      !- Vertex 1 Xcoordinate
    5.0,                      !- Vertex 1 Ycoordinate
    0.0,                      !- Vertex 1 Zcoordinate
    5.0,                      !- Vertex 2 Xcoordinate
    10.0,                     !- Vertex 2 Ycoordinate
    0.0,                      !- Vertex 2 Zcoordinate
    5.0,                      !- Vertex 3 Xcoordinate
    10.0,                     !- Vertex 3 Ycoordinate
    3.0,                      !- Vertex 3 Zcoordinate
    5.0,                      !- Vertex 4 Xcoordinate
    5.0,                      !- Vertex 4 Ycoordinate
    3.0;                      !- Vertex 4 Zcoordinate

BuildingSurface:Detailed,
    d958334b8a944b08b69b,     !- Name
    WALL,                     !- Surface Type
    Air Wall,                 !- Construction Name
    zone3,                    !- Zone Name
    SURFACE,                  !- Outside Boundary Condition
    ac59df43c7704d879f07,     !- Outside Boundary Condition Object
    NoSun,                    !- Sun Exposure
    NoWind,                   !- Wind Exposure
    autocalculate,            !- View Factor to Ground
    4.0,                      !- Number of Vertices
    0.9666532874107361,       !- Vertex 1 Xcoordinate
    5.0,                      !- Vertex 1 Ycoordinate
    0.268178254365921,        !- Vertex 1 Zcoordinate
    4.046487331390381,        !- Vertex 2 Xcoordinate
    5.0,                      !- Vertex 2 Ycoordinate
    0.268178254365921,        !- Vertex 2 Zcoordinate
    4.046487331390381,        !- Vertex 3 Xcoordinate
    5.0,                      !- Vertex 3 Ycoordinate
    2.2681782245635986,       !- Vertex 3 Zcoordinate
    0.9666532874107361,       !- Vertex 4 Xcoordinate
    5.0,                      !- Vertex 4 Ycoordinate
    2.2681782245635986;       !- Vertex 4 Zcoordinate

BuildingSurface:Detailed,
    09b8e906df744213ba63,     !- Name
    CEILING,                  !- Surface Type
    Interior Ceiling,         !- Construction Name
    zone3,                    !- Zone Name
    Outdoors,                 !- Outside Boundary Condition
    ,                         !- Outside Boundary Condition Object
    SunExposed,               !- Sun Exposure
    WindExposed,              !- Wind Exposure
    autocalculate,            !- View Factor to Ground
    4.0,                      !- Number of Vertices
    0.0,                      !- Vertex 1 Xcoordinate
    5.0,                      !- Vertex 1 Ycoordinate
    3.0,                      !- Vertex 1 Zcoordinate
    5.0,                      !- Vertex 2 Xcoordinate
    5.0,                      !- Vertex 2 Ycoordinate
    3.0,                      !- Vertex 2 Zcoordinate
    5.0,                      !- Vertex 3 Xcoordinate
[...]
    0.000227,                 !- Flow Rate per Zone Floor Area
    ,                         !- Flow Rate per Person
    ,                         !- Air Changes per Hour
    Natural,                  !- Ventilation Type
    0.0,                      !- Fan Pressure Rise
    1.0,                      !- Fan Total Efficiency
    1.0,                      !- Constant Term Coefficient
    0.0,                      !- Temperature Term Coefficient
    0.0,                      !- Velocity Term Coefficient
    0.0,                      !- Velocity Squared Term Coefficient
    -100.0,                   !- Minimum Indoor Temperature
    ,                         !- Minimum Indoor Temperature Schedule Name
    100.0,                    !- Maximum Indoor Temperature
    ,                         !- Maximum Indoor Temperature Schedule Name
    -100.0,                   !- Delta Temperature
    ,                         !- Delta Temperature Schedule Name
    -100.0,                   !- Minimum Outdoor Temperature
    ,                         !- Minimum Outdoor Temperature Schedule Name
    100.0,                    !- Maximum Outdoor Temperature
    ,                         !- Maximum Outdoor Temperature Schedule Name
    40.0;                     !- Maximum Wind Speed

ZONEVENTILATION:DESIGNFLOWRATE,
    Ventilation,              !- Name
    AllZones,                 !- Zone or ZoneList Name
    VentilationYear,          !- Schedule Name
    Flow/Person,              !- Design Flow Rate Calculation Method
    ,                         !- Design Flow Rate
    ,                         !- Flow Rate per Zone Floor Area
    0.015,                    !- Flow Rate per Person
    ,                         !- Air Changes per Hour
    Natural,                  !- Ventilation Type
    0.0,                      !- Fan Pressure Rise
    1.0,                      !- Fan Total Efficiency
    1.0,                      !- Constant Term Coefficient
    0.0,                      !- Temperature Term Coefficient
    0.0,                      !- Velocity Term Coefficient
    0.0,                      !- Velocity Squared Term Coefficient
    -100.0,                   !- Minimum Indoor Temperature
    ,                         !- Minimum Indoor Temperature Schedule Name
    100.0,                    !- Maximum Indoor Temperature
    ,                         !- Maximum Indoor Temperature Schedule Name
    -100.0,                   !- Delta Temperature
    ,                         !- Delta Temperature Schedule Name
    -100.0,                   !- Minimum Outdoor Temperature
    ,                         !- Minimum Outdoor Temperature Schedule Name
    100.0,                    !- Maximum Outdoor Temperature
    ,                         !- Maximum Outdoor Temperature Schedule Name
    40.0;                     !- Maximum Wind Speed

ZoneMixing,
    zone1zone3AirMix0,        !- Name
    zone1,                    !- Zone Name
    ALWAYS ON,                !- Schedule Name
    Flow/Zone,                !- Design Flow Rate Calculation Method
    0.593176002194,           !- Design Flow Rate
    ,                         !- Flow Rate per Zone Floor Area
    ,                         !- Flow Rate per Person
    ,                         !- Air Changes per Hour
    zone3,                    !- Source Zone Name
    0.0,                      !- Delta Temperature
    ,                         !- Delta Temperature Schedule Name
    ,                         !- Minimum Zone Temperature Schedule Name
    ,                         !- Maximum Zone Temperature Schedule Name
    ,                         !- Minimum Source Zone Temperature Schedule Name
    ,                         !- Maximum Source Zone Temperature Schedule Name
    ,                         !- Minimum Outdoor Temperature Schedule Name
    ;                         !- Maximum Outdoor Temperature Schedule Name

ZoneMixing,
    zone2zone4AirMix0,        !- Name
    zone2,                    !- Zone Name
    ALWAYS ON,                !- Schedule Name
    Flow/Zone,                !- Design Flow Rate Calculation Method
    0.0637929015755,          !- Design Flow Rate
    ,                         !- Flow Rate per Zone Floor Area
    ,                         !- Flow Rate per Person
    ,                         !- Air Changes per Hour
    zone4,                    !- Source Zone Name
    0.0,                      !- Delta Temperature
    ,                         !- Delta Temperature Schedule Name
    ,                         !- Minimum Zone Temperature Schedule Name
    ,                         !- Maximum Zone Temperature Schedule Name
    ,                         !- Minimum Source Zone Temperature Schedule Name
    ,                         !- Maximum Source Zone Temperature Schedule Name
    ,                         !- Minimum Outdoor Temperature Schedule Name
    ;                         !- Maximum Outdoor Temperature Schedule Name

ZoneMixing,
    zone3zone1AirMix0,        !- Name
    zone3,                    !- Zone Name
    ALWAYS ON,                !- Schedule Name
    Flow/Zone,                !- Design Flow Rate Calculation Method
    0.593176002194,           !- Design Flow Rate
    ,                         !- Flow Rate per Zone Floor Area
    ,                         !- Flow Rate per Person
    ,                         !- Air Changes per Hour
    zone1,                    !- Source Zone Name
    0.0,                      !- Delta Temperature
    ,                         !- Delta Temperature Schedule Name
    ,                         !- Minimum Zone Temperature Schedule Name
    ,                         !- Maximum Zone Temperature Schedule Name
    ,                         !- Minimum Source Zone Temperature Schedule Name
    ,                         !- Maximum Source Zone Temperature Schedule Name
    ,                         !- Minimum Outdoor Temperature Schedule Name
    ;                         !- Maximum Outdoor Temperature Schedule Name

ZoneMixing,
    zone4zone2AirMix0,        !- Name
    zone4,                    !- Zone Name
    ALWAYS ON,                !- Schedule Name
    Flow/Zone,                !- Design Flow Rate Calculation Method
    0.0637929015755,          !- Design Flow Rate
    ,                         !- Flow Rate per Zone Floor Area
    ,                         !- Flow Rate per Person
    ,                         !- Air Changes per Hour
    zone2,                    !- Source Zone Name
    0.0,                      !- Delta Temperature
    ,                         !- Delta Temperature Schedule Name
    ,                         !- Minimum Zone Temperature Schedule Name
    ,                         !- Maximum Zone Temperature Schedule Name
    ,                         !- Minimum Source Zone Temperature Schedule Name
    ,                         !- Maximum Source Zone Temperature Schedule Name
    ,                         !- Minimum Outdoor Temperature Schedule Name
    ;                         !- Maximum Outdoor Temperature Schedule Name

HVACTEMPLATE:THERMOSTAT,
    zone1_HVAC,               !- Name
    HeatingSetpointYear,      !- Heating Setpoint Schedule Name
    ,                         !- Constant Heating Setpoint
    CoolingSetpointYear,      !- Cooling Setpoint Schedule Name
    ;                         !- Constant Cooling Setpoint

HVACTEMPLATE:THERMOSTAT,
    zone2_HVAC,               !- Name
    HeatingSetpointYear,      !- Heating Setpoint Schedule Name
    ,                         !- Constant Heating Setpoint
    CoolingSetpointYear,      !- Cooling Setpoint Schedule Name
    ;                         !- Constant Cooling Setpoint

HVACTEMPLATE:THERMOSTAT,
    zone3_HVAC,               !- Name
    HeatingSetpointYear,      !- Heating Setpoint Schedule Name
    ,                         !- Constant Heating Setpoint
    CoolingSetpointYear,      !- Cooling Setpoint Schedule Name
    ;                         !- Constant Cooling Setpoint

HVACTEMPLATE:THERMOSTAT,
    zone4_HVAC,               !- Name
    HeatingSetpointYear,      !- Heating Setpoint Schedule Name
    ,                         !- Constant Heating Setpoint
    CoolingSetpointYear,      !- Cooling Setpoint Schedule Name
    ;                         !- Constant Cooling Setpoint

HVACTEMPLATE:ZONE:IDEALLOADSAIRSYSTEM,
    zone1,                    !- Zone Name
    zone1_HVAC,               !- Template Thermostat Name
    ,                         !- System Availability Schedule Name
    50,                       !- Maximum Heating Supply Air Temperature
    13,                       !- Minimum Cooling Supply Air Temperature
    0.0156,                   !- Maximum Heating Supply Air Humidity Ratio
    0.0077,                   !- Minimum Cooling Supply Air Humidity Ratio
    ,                         !- Heating Limit
    ,                         !- Maximum Heating Air Flow Rate
    ,                         !- Maximum Sensible Heating Capacity
    NoLimit,                  !- Cooling Limit
    ,                         !- Maximum Cooling Air Flow Rate
    ,                         !- Maximum Total Cooling Capacity
    ,                         !- Heating Availability Schedule Name
    ,                         !- Cooling Availability Schedule Name
    None,                     !- Dehumidification Control Type
    ,                         !- Cooling Sensible Heat Ratio
    ,                         !- Dehumidification Setpoint
    None,                     !- Humidification Control Type
    ,                         !- Humidification Setpoint
    Sum,                      !- Outdoor Air Method
    0.015,                    !- Outdoor Air Flow Rate per Person
    0.000227,                 !- Outdoor Air Flow Rate per Zone Floor Area
    ,                         !- Outdoor Air Flow Rate per Zone
    ,                         !- Design Specification Outdoor Air Object Name
    ,                         !- Demand Controlled Ventilation Type
    NoEconomizer,             !- Outdoor Air Economizer Type
    None,                     !- Heat Recovery Type
    ,                         !- Sensible Heat Recovery Effectiveness
    ;                         !- Latent Heat Recovery Effectiveness

HVACTEMPLATE:ZONE:IDEALLOADSAIRSYSTEM,
    zone2,                    !- Zone Name
    zone2_HVAC,               !- Template Thermostat Name
    ,                         !- System Availability Schedule Name
    50,                       !- Maximum Heating Supply Air Temperature
    13,                       !- Minimum Cooling Supply Air Temperature
    0.0156,                   !- Maximum Heating Supply Air Humidity Ratio
    0.0077,                   !- Minimum Cooling Supply Air Humidity Ratio
    ,                         !- Heating Limit
    ,                         !- Maximum Heating Air Flow Rate
    ,                         !- Maximum Sensible Heating Capacity
    NoLimit,                  !- Cooling Limit
    ,                         !- Maximum Cooling Air Flow Rate
    ,                         !- Maximum Total Cooling Capacity
    ,                         !- Heating Availability Schedule Name
    ,                         !- Cooling Availability Schedule Name
    None,                     !- Dehumidification Control Type
    ,                         !- Cooling Sensible Heat Ratio
    ,                         !- Dehumidification Setpoint
    None,                     !- Humidification Control Type
    ,                         !- Humidification Setpoint
    Sum,                      !- Outdoor Air Method
    0.015,                    !- Outdoor Air Flow Rate per Person
    0.000227,                 !- Outdoor Air Flow Rate per Zone Floor Area
    ,                         !- Outdoor Air Flow Rate per Zone
    ,                         !- Design Specification Outdoor Air Object Name
    ,                         !- Demand Controlled Ventilation Type
    NoEconomizer,             !- Outdoor Air Economizer Type
    None,                     !- Heat Recovery Type
    ,                         !- Sensible Heat Recovery Effectiveness
    ;                         !- Latent Heat Recovery Effectiveness

HVACTEMPLATE:ZONE:IDEALLOADSAIRSYSTEM,
    zone3,                    !- Zone Name
    zone3_HVAC,               !- Template Thermostat Name
    ,                         !- System Availability Schedule Name
    50,                       !- Maximum Heating Supply Air Temperature
    13,                       !- Minimum Cooling Supply Air Temperature
    0.0156,                   !- Maximum Heating Supply Air Humidity Ratio
    0.0077,                   !- Minimum Cooling Supply Air Humidity Ratio
    ,                         !- Heating Limit
    ,                         !- Maximum Heating Air Flow Rate
    ,                         !- Maximum Sensible Heating Capacity
    NoLimit,                  !- Cooling Limit
    ,                         !- Maximum Cooling Air Flow Rate
    ,                         !- Maximum Total Cooling Capacity
    ,                         !- Heating Availability Schedule Name
    ,                         !- Cooling Availability Schedule Name
    None,                     !- Dehumidification Control Type
    ,                         !- Cooling Sensible Heat Ratio
    ,                         !- Dehumidification Setpoint
    None,                     !- Humidification Control Type
    ,                         !- Humidification Setpoint
    Sum,                      !- Outdoor Air Method
    0.015,                    !- Outdoor Air Flow Rate per Person
    0.000227,                 !- Outdoor Air Flow Rate per Zone Floor Area
    ,                         !- Outdoor Air Flow Rate per Zone
    ,                         !- Design Specification Outdoor Air Object Name
    ,                         !- Demand Controlled Ventilation Type
    NoEconomizer,             !- Outdoor Air Economizer Type
    None,                     !- Heat Recovery Type
    ,                         !- Sensible Heat Recovery Effectiveness
    ;                         !- Latent Heat Recovery Effectiveness

HVACTEMPLATE:ZONE:IDEALLOADSAIRSYSTEM,
    zone4,                    !- Zone Name
    zone4_HVAC,               !- Template Thermostat Name
    ,                         !- System Availability Schedule Name
    50,                       !- Maximum Heating Supply Air Temperature
    13,                       !- Minimum Cooling Supply Air Temperature
    0.0156,                   !- Maximum Heating Supply Air Humidity Ratio
    0.0077,                   !- Minimum Cooling Supply Air Humidity Ratio
    ,                         !- Heating Limit
    ,                         !- Maximum Heating Air Flow Rate
    ,                         !- Maximum Sensible Heating Capacity
    NoLimit,                  !- Cooling Limit
    ,                         !- Maximum Cooling Air Flow Rate
    ,                         !- Maximum Total Cooling Capacity
    ,                         !- Heating Availability Schedule Name
    ,                         !- Cooling Availability Schedule Name
    None,                     !- Dehumidification Control Type
    ,                         !- Cooling Sensible Heat Ratio
    ,                         !- Dehumidification Setpoint
    None,                     !- Humidification Control Type
    ,                         !- Humidification Setpoint
    Sum,                      !- Outdoor Air Method
    0.015,                    !- Outdoor Air Flow Rate per Person
    0.000227,                 !- Outdoor Air Flow Rate per Zone Floor Area
    ,                         !- Outdoor Air Flow Rate per Zone
    ,                         !- Design Specification Outdoor Air Object Name
    ,                         !- Demand Controlled Ventilation Type
    NoEconomizer,             !- Outdoor Air Economizer Type
    None,                     !- Heat Recovery Type
    ,                         !- Sensible Heat Recovery Effectiveness
    ;                         !- Latent Heat Recovery Effectiveness

SIZING:PARAMETERS,
    1.25,                     !- Heating Sizing Factor
    1.15;                     !- Cooling Sizing Factor

OUTPUT:VARIABLEDICTIONARY,
    regular;                  !- Key Field

OUTPUT:SURFACES:LIST,
    Details;                  !- Report Type

OUTPUT:CONSTRUCTIONS,
    Constructions;            !- Details Type 1

OUTPUT:TABLE:SUMMARYREPORTS,
    AllSummary;               !- Report 1 Name

OUTPUTCONTROL:TABLE:STYLE,
    Comma,                    !- Column Separator
    JtoKWH;                   !- Unit Conversion

OUTPUT:VARIABLE,
    *,                        !- Key Value
    Zone Air Relative Humidity,    !- Variable Name
    Hourly;                   !- Reporting Frequency

OUTPUT:VARIABLE,
    *,                        !- Key Value
    Zone Air Temperature,     !- Variable Name
    Hourly;                   !- Reporting Frequency

OUTPUT:VARIABLE,
    *,                        !- Key Value
    Zone Electric Equipment Total Heating Energy,    !- Variable Name
    Hourly;                   !- Reporting Frequency

OUTPUT:VARIABLE,
    *,                        !- Key Value
    Zone Ideal Loads Outdoor Air Sensible Cooling Energy,    !- Variable Name
    Hourly;                   !- Reporting Frequency

OUTPUT:VARIABLE,
    *,                        !- Key Value
    Zone Ideal Loads Outdoor Air Sensible Heating Energy,    !- Variable Name
    Hourly;                   !- Reporting Frequency

OUTPUT:VARIABLE,
    *,                        !- Key Value
    Zone Lights Total Heating Energy,    !- Variable Name
    Hourly;                   !- Reporting Frequency

OUTPUT:VARIABLE,
    *,                        !- Key Value
    Zone Mean Air Dewpoint Temperature,    !- Variable Name
    Hourly;                   !- Reporting Frequency

OUTPUT:VARIABLE,
    *,                        !- Key Value
    Zone Mean Radiant Temperature,    !- Variable Name
    Hourly;                   !- Reporting Frequency

OUTPUT:VARIABLE,
    *,                        !- Key Value
    Zone Mechanical Ventilation Current Density Volume Flow Rate,    !- Variable Name
    Hourly;                   !- Reporting Frequency

OUTPUT:VARIABLE,
    *,                        !- Key Value
    Zone People Occupant Count,    !- Variable Name
    Hourly;                   !- Reporting Frequency

OUTPUT:VARIABLE,
    *,                        !- Key Value
    Zone People Total Heating Energy,    !- Variable Name
    Hourly;                   !- Reporting Frequency

OUTPUT:VARIABLE,
    *,                        !- Key Value
    Zone Thermostat Cooling Setpoint Temperature,    !- Variable Name
    Hourly;                   !- Reporting Frequency

OUTPUT:VARIABLE,
    *,                        !- Key Value
    Zone Thermostat Heating Setpoint Temperature,    !- Variable Name
    Hourly;                   !- Reporting Frequency

OUTPUT:VARIABLE,
    *,                        !- Key Value
    Zone Total Internal Total Heating Energy,    !- Variable Name
    Hourly;                   !- Reporting Frequency

OUTPUT:VARIABLE,
    *,                        !- Key Value
    Zone Windows Total Transmitted Solar Radiation Energy,    !- Variable Name
    Hourly;                   !- Reporting Frequency

OUTPUT:VARIABLE,
    *,                        !- Key Value
    Zone Ideal Loads Zone Total Cooling Energy,    !- Variable Name
    Hourly;                   !- Reporting Frequency

OUTPUT:VARIABLE,
    *,                        !- Key Value
    Zone Ideal Loads Zone Total Heating Energy,    !- Variable Name
    Hourly;                   !- Reporting Frequency

OUTPUT:SQLITE,
    Simple;                   !- Option Type

OUTPUT:DIAGNOSTICS,
    DisplayExtraWarnings,     !- Key 1
    DisplayUnusedSchedules;    !- Key 2

OUTPUT:DEBUGGINGDATA,
    1,                        !- Report Debugging Data
    1;                        !- Report During Warmup