Program Version,EnergyPlus, Version 8.8.0-7c3bbe4830, YMD=2018.07.17 15:36
! <Version>, Version ID
 Version, 8.8.0
! <Timesteps per Hour>, #TimeSteps, Minutes per TimeStep {minutes}
 Timesteps per Hour,  6, 10
! <System Convergence Limits>, Minimum System TimeStep {minutes}, Max HVAC Iterations, Minimum Plant Iterations, Maximum Plant Iterations
 System Convergence Limits, 1, 20, 2, 8
! <Simulation Control>, Do Zone Sizing, Do System Sizing, Do Plant Sizing, Do Design Days, Do Weather Simulation, Do HVAC Sizing Simulation
 Simulation Control, No, No, No, No, Yes, No
! <Output Reporting Tolerances>, Tolerance for Time Heating Setpoint Not Met, Tolerance for Zone Cooling Setpoint Not Met Time
 Output Reporting Tolerances, 0.200, 0.200, 
! <Site:GroundTemperature:BuildingSurface>,Jan{C},Feb{C},Mar{C},Apr{C},May{C},Jun{C},Jul{C},Aug{C},Sep{C},Oct{C},Nov{C},Dec{C}
 Site:GroundTemperature:BuildingSurface,  18.00,  18.00,  18.00,  18.00,  18.00,  18.00,  18.00,  18.00,  18.00,  18.00,  18.00,  18.00
! <Site:GroundTemperature:Shallow>,Jan{C},Feb{C},Mar{C},Apr{C},May{C},Jun{C},Jul{C},Aug{C},Sep{C},Oct{C},Nov{C},Dec{C}
 Site:GroundTemperature:Shallow,  13.00,  13.00,  13.00,  13.00,  13.00,  13.00,  13.00,  13.00,  13.00,  13.00,  13.00,  13.00
! <Site:GroundTemperature:Deep>,Jan{C},Feb{C},Mar{C},Apr{C},May{C},Jun{C},Jul{C},Aug{C},Sep{C},Oct{C},Nov{C},Dec{C}
 Site:GroundTemperature:Deep,  16.00,  16.00,  16.00,  16.00,  16.00,  16.00,  16.00,  16.00,  16.00,  16.00,  16.00,  16.00
! <Site:GroundReflectance>,Jan{dimensionless},Feb{dimensionless},Mar{dimensionless},Apr{dimensionless},May{dimensionless},Jun{dimensionless},Jul{dimensionless},Aug{dimensionless},Sep{dimensionless},Oct{dimensionless},Nov{dimensionless},Dec{dimensionless}
 Site:GroundReflectance,  0.20,  0.20,  0.20,  0.20,  0.20,  0.20,  0.20,  0.20,  0.20,  0.20,  0.20,  0.20
! <Site:GroundReflectance:SnowModifier>, Normal, Daylighting {dimensionless}
 Site:GroundReflectance:SnowModifier,   1.000,   1.000
! <Site:GroundReflectance:Snow>,Jan{dimensionless},Feb{dimensionless},Mar{dimensionless},Apr{dimensionless},May{dimensionless},Jun{dimensionless},Jul{dimensionless},Aug{dimensionless},Sep{dimensionless},Oct{dimensionless},Nov{dimensionless},Dec{dimensionless}
 Site:GroundReflectance:Snow,  0.20,  0.20,  0.20,  0.20,  0.20,  0.20,  0.20,  0.20,  0.20,  0.20,  0.20,  0.20
! <Site:GroundReflectance:Snow:Daylighting>,Jan{dimensionless},Feb{dimensionless},Mar{dimensionless},Apr{dimensionless},May{dimensionless},Jun{dimensionless},Jul{dimensionless},Aug{dimensionless},Sep{dimensionless},Oct{dimensionless},Nov{dimensionless},Dec{dimensionless}
 Site:GroundReflectance:Snow:Daylighting,  0.20,  0.20,  0.20,  0.20,  0.20,  0.20,  0.20,  0.20,  0.20,  0.20,  0.20,  0.20
! <Environment:Weather Station>,Wind Sensor Height Above Ground {m},Wind Speed Profile Exponent {},Wind Speed Profile Boundary Layer Thickness {m},Air Temperature Sensor Height Above Ground {m},Wind Speed Modifier Coefficient-Internal,Temperature Modifier Coefficient-Internal
Environment:Weather Station,10.000,0.140,270.000,1.500,1.586,9.750E-003
! <Site:Location>, Location Name, Latitude {N+/S- Deg}, Longitude {E+/W- Deg},  Time Zone Number {GMT+/-}, Elevation {m},  Standard Pressure at Elevation {Pa}, Standard RhoAir at Elevation
Site:Location,CARDIFF GBR CIBSE_TRY05 WMO#=NA,51.48,-3.34,0.00,10.00,101205,1.2029
! <Building Information>, Building Name,North Axis {deg},Terrain,  Loads Convergence Tolerance Value,Temperature Convergence Tolerance Value,  Solar Distribution,Maximum Number of Warmup Days,Minimum Number of Warmup Days
 Building Information,IHOPETHISWORKS,0.000,City,4.00000E-002,0.40000,FullInteriorAndExteriorWithReflectionsFromExteriorSurfaces,25,6
! <Inside Convection Algorithm>, Algorithm {Simple | TARP | CeilingDiffuser | AdaptiveConvectionAlgorithm}
Inside Convection Algorithm,TARP
! <Outside Convection Algorithm>, Algorithm {SimpleCombined | TARP | MoWitt | DOE-2 | AdaptiveConvectionAlgorithm}
Outside Convection Algorithm,DOE-2
! <Sky Radiance Distribution>, Value {Anisotropic}
Sky Radiance Distribution,Anisotropic
! <Zone Air Solution Algorithm>, Value {ThirdOrderBackwardDifference | AnalyticalSolution | EulerMethod}
 Zone Air Solution Algorithm, ThirdOrderBackwardDifference
! <Zone Air Carbon Dioxide Balance Simulation>, Simulation {Yes/No}, Carbon Dioxide Concentration
 Zone Air Carbon Dioxide Balance Simulation, No,N/A
! <Zone Air Generic Contaminant Balance Simulation>, Simulation {Yes/No}, Generic Contaminant Concentration
 Zone Air Generic Contaminant Balance Simulation, No,N/A
! <Zone Air Mass Flow Balance Simulation>, Enforce Mass Balance, Adjust Zone Mixing, Adjust Zone Infiltration {AddInfiltration | AdjustInfiltration | None}, Infiltration Zones {MixingSourceZonesOnly | AllZones}
 Zone Air Mass Flow Balance Simulation, No,N/A,N/A,N/A
! <HVACSystemRootFindingAlgorithm>, Value {RegulaFalsi | Bisection | BisectionThenRegulaFalsi | RegulaFalsiThenBisection}
 HVACSystemRootFindingAlgorithm, RegulaFalsi
! <Environment:Site Atmospheric Variation>,Wind Speed Profile Exponent {},Wind Speed Profile Boundary Layer Thickness {m},Air Temperature Gradient Coefficient {K/m}
Environment:Site Atmospheric Variation,0.330,460.000,6.500000E-003
! <Surface Geometry>,Starting Corner,Vertex Input Direction,Coordinate System,Daylight Reference Point Coordinate System,Rectangular (Simple) Surface Coordinate System
 Surface Geometry,LowerLeftCorner,Counterclockwise,RelativeCoordinateSystem,RelativeCoordinateSystem,RelativeToZoneOrigin
! <ShadingProperty Reflectance>,Shading Surface Name,Shading Type,Diffuse Solar Reflectance, Diffuse Visible Reflectance,Surface Glazing Fraction,Surface Glazing Contruction
ShadingProperty Reflectance,SHDSRF_0_0_DDACA7CD-88C8-46C3-9DC0-0FC04362A939_0,Detached Shading:Building,0.20,0.20,0.00, N/A
ShadingProperty Reflectance,Mir-SHDSRF_0_0_DDACA7CD-88C8-46C3-9DC0-0FC04362A939_0,Detached Shading:Building,0.20,0.20,0.00, N/A
ShadingProperty Reflectance,SHDSRF_1_0_6D4414A5-3479-4238-8DEB-E62150A51133_0,Detached Shading:Building,0.20,0.20,0.00, N/A
ShadingProperty Reflectance,Mir-SHDSRF_1_0_6D4414A5-3479-4238-8DEB-E62150A51133_0,Detached Shading:Building,0.20,0.20,0.00, N/A
ShadingProperty Reflectance,SHDSRF_2_0_548ACABA-A54C-4746-9A6A-212AA5E8786F_0,Detached Shading:Building,0.20,0.20,0.00, N/A
ShadingProperty Reflectance,Mir-SHDSRF_2_0_548ACABA-A54C-4746-9A6A-212AA5E8786F_0,Detached Shading:Building,0.20,0.20,0.00, N/A
ShadingProperty Reflectance,SHDSRF_3_0_33BAAE6C-8965-4CAD-90A9-70738F57D035_0,Detached Shading:Building,0.20,0.20,0.00, N/A
ShadingProperty Reflectance,Mir-SHDSRF_3_0_33BAAE6C-8965-4CAD-90A9-70738F57D035_0,Detached Shading:Building,0.20,0.20,0.00, N/A
ShadingProperty Reflectance,SHDSRF_4_0_5077A5D0-E86C-45F8-8D6A-400E3A9B40B1_0,Detached Shading:Building,0.20,0.20,0.00, N/A
ShadingProperty Reflectance,Mir-SHDSRF_4_0_5077A5D0-E86C-45F8-8D6A-400E3A9B40B1_0,Detached Shading:Building,0.20,0.20,0.00, N/A
ShadingProperty Reflectance,SHDSRF_5_0_7A5D5AB5-AD15-4421-8EA5-DE6CD14B14C7_0,Detached Shading:Building,0.20,0.20,0.00, N/A
ShadingProperty Reflectance,Mir-SHDSRF_5_0_7A5D5AB5-AD15-4421-8EA5-DE6CD14B14C7_0,Detached Shading:Building,0.20,0.20,0.00, N/A
ShadingProperty Reflectance,SHDSRF_6_0_AFD421F8-EF76-48BA-9167-9B9060345026_0,Detached Shading:Building,0.20,0.20,0.00, N/A
ShadingProperty Reflectance,Mir-SHDSRF_6_0_AFD421F8-EF76-48BA-9167-9B9060345026_0,Detached Shading:Building,0.20,0.20,0.00, N/A
ShadingProperty Reflectance,SHDSRF_7_0_61743848-80D8-4A65-9A87-471D87560E6E_0,Detached Shading:Building,0.20,0.20,0.00, N/A
ShadingProperty Reflectance,Mir-SHDSRF_7_0_61743848-80D8-4A65-9A87-471D87560E6E_0,Detached Shading:Building,0.20,0.20,0.00, N/A
ShadingProperty Reflectance,SHDSRF_8_0_556DDDAA-4D81-4608-B374-86B235C13FFF_0,Detached Shading:Building,0.20,0.20,0.00, N/A
ShadingProperty Reflectance,Mir-SHDSRF_8_0_556DDDAA-4D81-4608-B374-86B235C13FFF_0,Detached Shading:Building,0.20,0.20,0.00, N/A
ShadingProperty Reflectance,SHDSRF_9_0_5E77C3F9-1FA6-4BAF-992D-D611DA9A44F1_0,Detached Shading:Building,0.20,0.20,0.00, N/A
ShadingProperty Reflectance,Mir-SHDSRF_9_0_5E77C3F9-1FA6-4BAF-992D-D611DA9A44F1_0,Detached Shading:Building,0.20,0.20,0.00, N/A
ShadingProperty Reflectance,SHDSRF_10_0_538A0872-244F-4F40-A653-ABA6C8F24DF9_0,Detached Shading:Building,0.20,0.20,0.00, N/A
ShadingProperty Reflectance,Mir-SHDSRF_10_0_538A0872-244F-4F40-A653-ABA6C8F24DF9_0,Detached Shading:Building,0.20,0.20,0.00, N/A
ShadingProperty Reflectance,SHDSRF_11_0_26236BF2-E1F2-4B54-B9E2-828621595BA8_0,Detached Shading:Building,0.20,0.20,0.00, N/A
ShadingProperty Reflectance,Mir-SHDSRF_11_0_26236BF2-E1F2-4B54-B9E2-828621595BA8_0,Detached Shading:Building,0.20,0.20,0.00, N/A
ShadingProperty Reflectance,SHDSRF_12_0_B332089A-9E62-4AFB-93F4-EABFC470390F_0,Detached Shading:Building,0.20,0.20,0.00, N/A
ShadingProperty Reflectance,Mir-SHDSRF_12_0_B332089A-9E62-4AFB-93F4-EABFC470390F_0,Detached Shading:Building,0.20,0.20,0.00, N/A
ShadingProperty Reflectance,SHDSRF_13_0_A5302187-E94B-429A-9746-E0077FF0245B_0,Detached Shading:Building,0.20,0.20,0.00, N/A
ShadingProperty Reflectance,Mir-SHDSRF_13_0_A5302187-E94B-429A-9746-E0077FF0245B_0,Detached Shading:Building,0.20,0.20,0.00, N/A
ShadingProperty Reflectance,SHDSRF_14_0_451847BD-39E0-4F4F-8A0A-42E41311D835_0,Detached Shading:Building,0.20,0.20,0.00, N/A
ShadingProperty Reflectance,Mir-SHDSRF_14_0_451847BD-39E0-4F4F-8A0A-42E41311D835_0,Detached Shading:Building,0.20,0.20,0.00, N/A
ShadingProperty Reflectance,SHDSRF_15_0_7086DE1E-AD81-41D8-809B-4895F3E09900_0,Detached Shading:Building,0.20,0.20,0.00, N/A
ShadingProperty Reflectance,Mir-SHDSRF_15_0_7086DE1E-AD81-41D8-809B-4895F3E09900_0,Detached Shading:Building,0.20,0.20,0.00, N/A
! <Surface Heat Transfer Algorithm>, Value {CTF - ConductionTransferFunction | EMPD - MoisturePenetrationDepthConductionTransferFunction | CondFD - ConductionFiniteDifference | HAMT - CombinedHeatAndMoistureFiniteElement} - Description,Inside Surface Max Temperature Limit{C}, Surface Convection Coefficient Lower Limit {W/m2-K}, Surface Convection Coefficient Upper Limit {W/m2-K}
Surface Heat Transfer Algorithm, CTF - ConductionTransferFunction,200,0.10,1000.0
! <Shading Summary>, Number of Fixed Detached Shades, Number of Building Detached Shades, Number of Attached Shades
 Shading Summary,0,32,0
! <Zone Summary>, Number of Zones, Number of Zone Surfaces, Number of SubSurfaces
 Zone Summary,4,76,13
! <Zone Information>,Zone Name,North Axis {deg},Origin X-Coordinate {m},Origin Y-Coordinate {m},Origin Z-Coordinate {m},Centroid X-Coordinate {m},Centroid Y-Coordinate {m},Centroid Z-Coordinate {m},Type,Zone Multiplier,Zone List Multiplier,Minimum X {m},Maximum X {m},Minimum Y {m},Maximum Y {m},Minimum Z {m},Maximum Z {m},Ceiling Height {m},Volume {m3},Zone Inside Convection Algorithm {Simple-Detailed-CeilingDiffuser-TrombeWall},Zone Outside Convection Algorithm {Simple-Detailed-Tarp-MoWitt-DOE-2-BLAST}, Floor Area {m2},Exterior Gross Wall Area {m2},Exterior Net Wall Area {m2},Exterior Window Area {m2}, Number of Surfaces, Number of SubSurfaces, Number of Shading SubSurfaces,  Part of Total Building Area
 Zone Information, ZONE1,0.0,0.00,0.00,0.00,4.61,4.61,3.83,1,1,1,0.00,10.00,0.00,10.00,0.00,6.00,3.75,375.00,TARP,DOE-2,100.00,150.00,126.00,28.00,21,7,0,Yes
 Zone Information, ZONE2,0.0,0.00,0.00,0.00,7.50,2.50,1.50,1,1,1,5.00,10.00,0.00,5.00,0.00,3.00,3.00,75.00,TARP,DOE-2,25.00,30.00,25.20,4.80,14,2,0,Yes
 Zone Information, ZONE3,0.0,0.00,0.00,0.00,2.50,7.50,1.50,1,1,1,0.00,5.00,5.00,10.00,0.00,3.00,3.00,75.00,TARP,DOE-2,25.00,30.00,25.20,4.80,14,2,0,Yes
 Zone Information, ZONE4,0.0,0.00,0.00,0.00,7.50,7.50,1.50,1,1,1,5.00,10.00,5.00,10.00,0.00,3.00,3.00,75.00,TARP,DOE-2,25.00,30.00,25.20,4.80,14,2,0,Yes
! <Zone Internal Gains Nominal>,Zone Name, Floor Area {m2},# Occupants,Area per Occupant {m2/person},Occupant per Area {person/m2},Interior Lighting {W/m2},Electric Load {W/m2},Gas Load {W/m2},Other Load {W/m2},Hot Water Eq {W/m2},Steam Equipment {W/m2},Sum Loads per Area {W/m2},Outdoor Controlled Baseboard Heat
 Zone Internal Gains Nominal, ZONE1,100.00,50.0,2.000,0.500,6.000,12.000,0.000,0.000,0.000,0.000,18.000,No
 Zone Internal Gains Nominal, ZONE2,25.00,12.5,2.000,0.500,6.000,12.000,0.000,0.000,0.000,0.000,18.000,No
 Zone Internal Gains Nominal, ZONE3,25.00,12.5,2.000,0.500,6.000,12.000,0.000,0.000,0.000,0.000,18.000,No
 Zone Internal Gains Nominal, ZONE4,25.00,12.5,2.000,0.500,6.000,12.000,0.000,0.000,0.000,0.000,18.000,No
! <People Internal Gains Nominal>,Name,Schedule Name,Zone Name,Zone Floor Area {m2},# Zone Occupants,Number of People {},People/Floor Area {person/m2},Floor Area per person {m2/person},Fraction Radiant,Fraction Convected,Sensible Fraction Calculation,Activity level,ASHRAE 55 Warnings,Carbon Dioxide Generation Rate,Nominal Minimum Number of People,Nominal Maximum Number of People
 People Internal Gains Nominal, ZONE1 PEOPLEGAIN,OCCUPANTGAINYEAR,ZONE1,100.00,50.0,50.0,0.500,2.000,0.300,0.700,0.577,OCCUPANTACTIVITYLEVELYEAR,No,3.8200E-008,0,50
 People Internal Gains Nominal, ZONE2 PEOPLEGAIN,OCCUPANTGAINYEAR,ZONE2,25.00,12.5,12.5,0.500,2.000,0.300,0.700,0.577,OCCUPANTACTIVITYLEVELYEAR,No,3.8200E-008,0,13
 People Internal Gains Nominal, ZONE3 PEOPLEGAIN,OCCUPANTGAINYEAR,ZONE3,25.00,12.5,12.5,0.500,2.000,0.300,0.700,0.577,OCCUPANTACTIVITYLEVELYEAR,No,3.8200E-008,0,13
 People Internal Gains Nominal, ZONE4 PEOPLEGAIN,OCCUPANTGAINYEAR,ZONE4,25.00,12.5,12.5,0.500,2.000,0.300,0.700,0.577,OCCUPANTACTIVITYLEVELYEAR,No,3.8200E-008,0,13
! <Lights Internal Gains Nominal>,Name,Schedule Name,Zone Name,Zone Floor Area {m2},# Zone Occupants,Lighting Level {W},Lights/Floor Area {W/m2},Lights per person {W/person},Fraction Return Air,Fraction Radiant,Fraction Short Wave,Fraction Convected,Fraction Replaceable,End-Use Category,Nominal Minimum Lighting Level {W},Nominal Maximum Lighting Level {W}
 Lights Internal Gains Nominal, ZONE1 LIGHTINGGAIN,LIGHTINGGAINYEAR,ZONE1,100.00,50.0,600.000,6.000,12.000,0.000,0.500,0.500,0.000,1.000,General,0.000,600.000
 Lights Internal Gains Nominal, ZONE2 LIGHTINGGAIN,LIGHTINGGAINYEAR,ZONE2,25.00,12.5,150.000,6.000,12.000,0.000,0.500,0.500,0.000,1.000,General,0.000,150.000
 Lights Internal Gains Nominal, ZONE3 LIGHTINGGAIN,LIGHTINGGAINYEAR,ZONE3,25.00,12.5,150.000,6.000,12.000,0.000,0.500,0.500,0.000,1.000,General,0.000,150.000
 Lights Internal Gains Nominal, ZONE4 LIGHTINGGAIN,LIGHTINGGAINYEAR,ZONE4,25.00,12.5,150.000,6.000,12.000,0.000,0.500,0.500,0.000,1.000,General,0.000,150.000
! <ElectricEquipment Internal Gains Nominal>,Name,Schedule Name,Zone Name,Zone Floor Area {m2},# Zone Occupants,Equipment Level {W},Equipment/Floor Area {W/m2},Equipment per person {W/person},Fraction Latent,Fraction Radiant,Fraction Lost,Fraction Convected,End-Use SubCategory,Nominal Minimum Equipment Level {W},Nominal Maximum Equipment Level {W}
 ElectricEquipment Internal Gains Nominal, ZONE1 EQUIPMENTGAIN,EQUIPMENTGAINYEAR,ZONE1,100.00,50.0,1200.000,12.000,24.000,0.850,0.150,0.000,0.000,General,0.000,1200.000
 ElectricEquipment Internal Gains Nominal, ZONE2 EQUIPMENTGAIN,EQUIPMENTGAINYEAR,ZONE2,25.00,12.5,300.000,12.000,24.000,0.850,0.150,0.000,0.000,General,0.000,300.000
 ElectricEquipment Internal Gains Nominal, ZONE3 EQUIPMENTGAIN,EQUIPMENTGAINYEAR,ZONE3,25.00,12.5,300.000,12.000,24.000,0.850,0.150,0.000,0.000,General,0.000,300.000
 ElectricEquipment Internal Gains Nominal, ZONE4 EQUIPMENTGAIN,EQUIPMENTGAINYEAR,ZONE4,25.00,12.5,300.000,12.000,24.000,0.850,0.150,0.000,0.000,General,0.000,300.000
! <Construction CTF>,Construction Name,Index,#Layers,#CTFs,Time Step {hours},ThermalConductance {w/m2-K},OuterThermalAbsorptance,InnerThermalAbsorptance,OuterSolarAbsorptance,InnerSolarAbsorptance,Roughness
! <Material CTF Summary>,Material Name,Thickness {m},Conductivity {w/m-K},Density {kg/m3},Specific Heat {J/kg-K},ThermalResistance {m2-K/w}
! <Material:Air>,Material Name,ThermalResistance {m2-K/w}
! <CTF>,Time,Outside,Cross,Inside,Flux (except final one)
 Construction CTF,INTERIOR WALL,   1,   2,  15,   0.167,     0.5000    ,   0.100,   0.100,   0.400,   0.400,MediumSmooth
 Material CTF Summary,INTERIOR WALL OUTSIDE MATERIAL,  0.1000,         0.100,    800.000,     1090.000,   1.000    
 Material CTF Summary,INTERIOR WALL OUTSIDE MATERIAL,  0.1000,         0.100,    800.000,     1090.000,   1.000    
 CTF,  15,     -0.31153240E-04,     -0.23607999E-16,     -0.31153240E-04,      0.32925335E-05
 CTF,  14,      0.12740462E-02,      0.85924320E-16,      0.12740462E-02,     -0.13632742E-03
 CTF,  13,     -0.23707628E-01,      0.17858573E-14,     -0.23707628E-01,      0.25710843E-02
 CTF,  12,      0.26612457    ,      0.20039729E-12,      0.26612457    ,     -0.29283654E-01
 CTF,  11,      -2.0144682    ,      0.10903801E-10,      -2.0144682    ,      0.22517099    
 CTF,  10,       10.888986    ,      0.21745498E-09,       10.888986    ,      -1.2378329    
 CTF,   9,      -43.413820    ,      0.19287692E-08,      -43.413820    ,       5.0250393    
 CTF,   8,       130.00444    ,      0.81662676E-08,       130.00444    ,      -15.339670    
 CTF,   7,      -294.85818    ,      0.17151068E-07,      -294.85818    ,       35.506943    
 CTF,   6,       506.68030    ,      0.17815235E-07,       506.68030    ,      -62.337628    
 CTF,   5,      -654.57855    ,      0.88889239E-08,      -654.57855    ,       82.364213    
 CTF,   4,       624.71204    ,      0.19404059E-08,       624.71204    ,      -80.468475    
 CTF,   3,      -426.63861    ,      0.17340145E-09,      -426.63861    ,       56.304509    
 CTF,   2,       196.98400    ,     -0.84389164E-12,       196.98400    ,      -26.654798    
 CTF,   1,      -55.026623    ,      0.13405008E-11,      -55.026623    ,       7.6393738    
 CTF,   0,       7.0168333    ,     -0.17273002E-12,       7.0168333    
 Construction CTF,EXTERIOR WALL,   2,   3,   6,   0.167,     0.2199    ,   0.100,   0.100,   0.700,   0.400,MediumSmooth
 Material CTF Summary,EXTERIOR WALL OUTSIDE MATERIAL,  0.0100,         5.000,   1800.000,     1000.000,  0.2000E-02
 Material CTF Summary,EXTERIOR WALL MIDDLE MATERIAL,  0.1636,         0.036,     50.000,     1030.000,   4.544    
 Material CTF Summary,EXTERIOR WALL INSIDE MATERIAL,  0.0100,         5.000,    800.000,     1090.000,  0.2000E-02
 CTF,   6,      0.11061911    ,     -0.26096002E-11,      0.55726486E-01,      0.23661104E-15
 CTF,   5,      -2.2906048    ,      0.12362324E-05,      -1.1572864    ,      0.35590980E-02
 CTF,   4,       17.511985    ,      0.14496408E-03,       8.8820856    ,     -0.69910619E-01
 CTF,   3,      -62.982693    ,      0.16479428E-02,      -32.105431    ,      0.48943857    
 CTF,   2,       113.12531    ,      0.33728068E-02,       58.014528    ,      -1.5114962    
 CTF,   1,      -97.629374    ,      0.12201939E-02,      -50.405485    ,       2.0591882    
 CTF,   0,       32.161179    ,      0.37203117E-04,       16.722285    
 Construction CTF,INTERIOR FLOOR,   3,   2,  11,   0.167,      1.000    ,   0.900,   0.900,   0.300,   0.500,MediumSmooth
 Material CTF Summary,INTERIOR FLOOR/CEILING CEILING MATERIAL,  0.1000,         0.200,    368.000,      590.000,  0.5000    
 Material CTF Summary,INTERIOR FLOOR/CEILING FLOOR MATERIAL,  0.1000,         0.200,   1280.000,      840.000,  0.5000    
 CTF,  11,     -0.29615156E-08,     -0.29382971E-17,     -0.74218628E-09,      0.53171104E-10
 CTF,  10,      0.44824859E-05,      0.50647863E-13,      0.13790204E-05,     -0.98817949E-07
 CTF,   9,     -0.95210406E-03,      0.85877295E-10,     -0.40484953E-03,      0.29047112E-04
 CTF,   8,      0.37098944E-01,      0.19819568E-07,      0.21452176E-01,     -0.15494832E-02
 CTF,   7,     -0.53133580    ,      0.10164053E-05,     -0.37618253    ,      0.27601787E-01
 CTF,   6,       3.8713570    ,      0.15207837E-04,       3.1976244    ,     -0.23979613    
 CTF,   5,      -16.334949    ,      0.76676732E-04,      -15.285448    ,       1.1778464    
 CTF,   4,       42.162343    ,      0.13687958E-03,       43.781643    ,      -3.4837674    
 CTF,   3,      -67.385032    ,      0.83076417E-04,      -76.423098    ,       6.3078951    
 CTF,   2,       64.896689    ,      0.14477253E-04,       79.354492    ,      -6.8207335    
 CTF,   1,      -34.432565    ,      0.45606670E-06,      -44.904866    ,       4.0321465    
 CTF,   0,       7.7176701    ,      0.46074908E-09,       10.635115    
 Construction CTF,EXTERIOR FLOOR,   4,   3,  18,   0.333,     0.2199    ,   0.900,   0.900,   0.700,   0.700,MediumRough
 Material CTF Summary,EXTERIOR FLOOR OUTSIDE MATERIAL,  0.0100,         5.000,   1000.000,     1210.000,  0.2000E-02
 Material CTF Summary,EXTERIOR FLOOR MIDDLE MATERIAL,  0.1636,         0.036,    700.000,     1030.000,   4.544    
 Material CTF Summary,EXTERIOR FLOOR INSIDE MATERIAL,  0.0100,         5.000,   2240.000,      900.000,  0.2000E-02
 CTF,  18,      0.46385726E-09,     -0.67164589E-21,      0.70921599E-09,     -0.23484006E-12
 CTF,  17,     -0.32800828E-07,      0.10182357E-18,     -0.50072369E-07,      0.36619206E-10
 CTF,  16,      0.13792389E-05,     -0.47593658E-18,      0.21019144E-05,     -0.25570885E-08
 CTF,  15,     -0.38545899E-04,      0.75970574E-14,     -0.58628020E-04,      0.10594921E-06
 CTF,  14,      0.75830095E-03,      0.56711428E-13,      0.11508068E-02,     -0.29087463E-05
 CTF,  13,     -0.10858987E-01,      0.89670791E-12,     -0.16438162E-01,      0.56002256E-04
 CTF,  12,      0.11556136    ,      0.32761364E-10,      0.17443661    ,     -0.78120109E-03
 CTF,  11,     -0.92586975    ,      0.72053079E-09,      -1.3931095    ,      0.80516153E-02
 CTF,  10,       5.6287842    ,      0.75695474E-08,       8.4392771    ,     -0.62030503E-01
 CTF,   9,      -26.071884    ,      0.43868053E-07,      -38.937155    ,      0.35942098    
 CTF,   8,       92.082330    ,      0.13048013E-06,       136.93731    ,      -1.5693450    
 CTF,   7,      -247.36548    ,      0.21903135E-06,      -366.18709    ,       5.1536999    
 CTF,   6,       502.16823    ,      0.16210311E-06,       739.79772    ,      -12.651467    
 CTF,   5,      -761.30669    ,      0.96381564E-07,      -1115.8976    ,       22.948379    
 CTF,   4,       844.97484    ,     -0.21646278E-07,       1232.0593    ,      -30.161501    
 CTF,   3,      -664.32710    ,      0.31893636E-07,      -963.46582    ,       27.802338    
 CTF,   2,       349.42233    ,     -0.18929854E-07,       504.00501    ,      -16.982585    
 CTF,   1,      -110.05106    ,      0.68334018E-08,      -157.86643    ,       6.1557637    
 CTF,   0,       15.666146    ,     -0.11040426E-08,       22.349429    
 Construction CTF,INTERIOR CEILING,   5,   2,  11,   0.167,      1.000    ,   0.900,   0.900,   0.500,   0.300,MediumRough
 Material CTF Summary,INTERIOR FLOOR/CEILING FLOOR MATERIAL,  0.1000,         0.200,   1280.000,      840.000,  0.5000    
 Material CTF Summary,INTERIOR FLOOR/CEILING CEILING MATERIAL,  0.1000,         0.200,    368.000,      590.000,  0.5000    
 CTF,  11,     -0.74218628E-09,     -0.29382971E-17,     -0.29615156E-08,      0.53171104E-10
 CTF,  10,      0.13790204E-05,      0.50647863E-13,      0.44824859E-05,     -0.98817949E-07
 CTF,   9,     -0.40484953E-03,      0.85877295E-10,     -0.95210406E-03,      0.29047112E-04
 CTF,   8,      0.21452176E-01,      0.19819568E-07,      0.37098944E-01,     -0.15494832E-02
 CTF,   7,     -0.37618253    ,      0.10164053E-05,     -0.53133580    ,      0.27601787E-01
 CTF,   6,       3.1976244    ,      0.15207837E-04,       3.8713570    ,     -0.23979613    
 CTF,   5,      -15.285448    ,      0.76676732E-04,      -16.334949    ,       1.1778464    
 CTF,   4,       43.781643    ,      0.13687958E-03,       42.162343    ,      -3.4837674    
 CTF,   3,      -76.423098    ,      0.83076417E-04,      -67.385032    ,       6.3078951    
 CTF,   2,       79.354492    ,      0.14477253E-04,       64.896689    ,      -6.8207335    
 CTF,   1,      -44.904866    ,      0.45606670E-06,      -34.432565    ,       4.0321465    
 CTF,   0,       10.635115    ,      0.46074908E-09,       7.7176701    
 Construction CTF,EXTERIOR ROOF,   6,   3,   6,   0.167,     0.1797    ,   0.900,   0.900,   0.500,   0.300,MediumRough
 Material CTF Summary,EXTERIOR ROOF OUTSIDE MATERIAL,  0.0100,         5.000,   1800.000,     1000.000,  0.2000E-02
 Material CTF Summary,EXTERIOR ROOF MIDDLE MATERIAL,  0.2002,         0.036,     50.000,     1030.000,   5.560    
 Material CTF Summary,EXTERIOR ROOF INSIDE MATERIAL,  0.0100,         5.000,    250.000,     1000.000,  0.2000E-02
 CTF,   6,      0.72494489    ,     -0.16809607E-11,      0.12906831    ,      0.47734682E-16
 CTF,   5,      -9.3581885    ,      0.60386074E-06,      -1.6917098    ,      0.23118398E-01
 CTF,   4,       47.621318    ,      0.53153632E-04,       8.7630644    ,     -0.27428929    
 CTF,   3,      -122.28134    ,      0.45763423E-03,      -22.960539    ,       1.2329844    
 CTF,   2,       167.48787    ,      0.73229889E-03,       32.153719    ,      -2.6191489    
 CTF,   1,      -116.48653    ,      0.21384705E-03,      -22.894548    ,       2.6291955    
 CTF,   0,       32.293384    ,      0.54102795E-05,       6.5024085    
 Construction CTF,AIR WALL,   7,   1,   2,   0.167,      13.10    ,   0.001,   0.001,   0.001,   0.001,Smooth
 Material CTF Summary,AIR WALL MATERIAL,  0.0020,         0.026,      1.225,     1000.000,  0.7634E-01
 CTF,   2,      0.28731289E-15,      0.16983614E-15,      0.28731289E-15,       0.0000000    
 CTF,   1,     -0.12854938E-02,      0.75617283E-03,     -0.12854938E-02,      0.86365181E-12
 CTF,   0,       13.101285    ,       13.099244    ,       13.101285    
! <WindowConstruction>,Construction Name,Index,#Layers,Roughness,Conductance {W/m2-K},SHGC,Solar Transmittance at Normal Incidence,Visible Transmittance at Normal Incidence
! <WindowMaterial:Glazing>, Material Name, Optical Data Type, Spectral Data Set Name, Thickness {m}, Solar Transmittance,Front Solar Reflectance, Back Solar Reflectance, Visible Transmittance, Front Visible Reflectance,Back Visible Reflectance,Infrared Transmittance, Front Thermal Emissivity, Back Thermal Emissivity,Conductivity {W/m-K},Dirt Factor,Solar Diffusing
 WindowConstruction,EXTERIOR WINDOW,8,1,VerySmooth,1.600,0.599,0.525,0.651
 WindowMaterial:Glazing,EXTERIOR WINDOW MATERIAL,SpectralAverage,,4.32833E-002,0.52429,0.30207,0.30207,0.65000,0.13254,0.15003,0.00000,0.84000,0.84000,9.61247E-002,1.00000,No
 WindowConstruction,INTERIOR WINDOW,9,1,VerySmooth,5.787,0.950,0.934,0.901
 WindowMaterial:Glazing,INTERIOR WINDOW MATERIAL,SpectralAverage,,2.00000E-003,0.93379,7.65634E-003,7.65634E-003,0.90000,9.90000E-002,9.90000E-002,0.00000,0.84000,0.84000,0.31299,1.00000,No
! <Shadowing/Sun Position Calculations Annual Simulations>, Calculation Method, Value {days}, Allowable Number Figures in Shadow Overlap {}, Polygon Clipping Algorithm, Sky Diffuse Modeling Algorithm
Shadowing/Sun Position Calculations Annual Simulations,AverageOverDaysInFrequency,20,15000,SutherlandHodgman,SimpleSkyDiffuseModeling,InternalCalculation,Yes
! <Surface Convection Parameters>, Surface Name, Outside Model Assignment, Outside Area [m2], Outside Perimeter [m], Outside Height [m], Inside Model Assignment, Inside Height [cm], Inside Perimeter Envelope [m], Inside Hydraulic Diameter [m], Window Wall Ratio [ ], Window Location [ ], Near Radiant [Yes/No], Has Active HVAC [Yes/No]
Surface Convection Parameters,466564015B2F43199C1B,0,60.00,32.00,6.00,0,3.75,50.00,10.00,0.19,3,No,No
Surface Convection Parameters,466564015B2F43199C1B_GLZ_0_F3AAB6FB8BD3451FBA7D,0,60.00,32.00,6.00,0,3.75,50.00,10.00,0.19,2,No,No
Surface Convection Parameters,AA69F423B82B48AAAA7E,0,60.00,32.00,6.00,0,3.75,50.00,10.00,0.19,3,No,No
Surface Convection Parameters,AA69F423B82B48AAAA7E_GLZ_0_706693F7F3F64B68969E,0,60.00,32.00,6.00,0,3.75,50.00,10.00,0.19,1,No,No
Surface Convection Parameters,FD8A070E4BE54D88AE3B,0,60.00,32.00,6.00,0,3.75,50.00,10.00,0.19,3,No,No
Surface Convection Parameters,FD8A070E4BE54D88AE3B_GLZ_0_B285641B64A742589E03,0,60.00,32.00,6.00,0,3.75,50.00,10.00,0.19,2,No,No
Surface Convection Parameters,D9E98E2F98CA44578C65,0,60.00,32.00,6.00,0,3.75,50.00,10.00,0.19,3,No,No
Surface Convection Parameters,AF6581C9E0E3475DA994,0,60.00,40.28,6.00,0,3.75,50.00,10.00,0.19,3,No,No
Surface Convection Parameters,AF6581C9E0E3475DA994_GLZ_0_A0DF08794DAE4C1B8D9A,0,60.00,40.28,6.00,0,3.75,50.00,10.00,0.19,2,No,No
Surface Convection Parameters,3675D61B3AAB405AA64E,0,60.00,40.28,6.00,0,3.75,50.00,10.00,0.19,3,No,No
Surface Convection Parameters,3675D61B3AAB405AA64E_GLZ_0_C015151E9B4341638ED8,0,60.00,40.28,6.00,0,3.75,50.00,10.00,0.19,2,No,No
Surface Convection Parameters,3450B9CAC0D14E639808_SRFP_0,0,0.00,0.00,0.00,0,3.75,50.00,10.00,0.19,0,No,No
Surface Convection Parameters,3450B9CAC0D14E639808_SRFP_1,0,0.00,0.00,0.00,0,3.75,50.00,10.00,0.19,0,No,No
Surface Convection Parameters,3450B9CAC0D14E639808_SRFP_2,0,0.00,0.00,0.00,0,3.75,50.00,10.00,0.19,0,No,No
Surface Convection Parameters,3450B9CAC0D14E639808_SRFP_3,0,0.00,0.00,0.00,0,3.75,50.00,10.00,0.19,0,No,No
Surface Convection Parameters,3450B9CAC0D14E639808_SRFP_4,0,0.00,0.00,0.00,0,3.75,50.00,10.00,0.19,0,No,No
Surface Convection Parameters,3450B9CAC0D14E639808_SRFP_5,0,0.00,0.00,0.00,0,3.75,50.00,10.00,0.19,0,No,No
Surface Convection Parameters,3450B9CAC0D14E639808_SRFP_6,0,0.00,0.00,0.00,0,3.75,50.00,10.00,0.19,0,No,No
Surface Convection Parameters,3450B9CAC0D14E639808_SRFP_7,0,0.00,0.00,0.00,0,3.75,50.00,10.00,0.19,0,No,No
Surface Convection Parameters,749EC30EECD34DC4A25C,0,0.00,0.00,0.00,0,3.75,50.00,10.00,0.19,0,No,No
Surface Convection Parameters,749EC30EECD34DC4A25C_GLZ_0_7C286FED11CF4D82B23B,0,0.00,0.00,0.00,0,3.75,50.00,10.00,0.19,0,No,No
Surface Convection Parameters,F54267983C3742E19DB3,0,0.00,0.00,0.00,0,3.75,50.00,10.00,0.19,0,No,No
Surface Convection Parameters,10AE508A81264C718D07,0,0.00,0.00,0.00,0,3.75,50.00,10.00,0.19,0,No,No
Surface Convection Parameters,91E9F8EB13224A229BEE,0,0.00,0.00,0.00,0,3.75,50.00,10.00,0.19,0,No,No
Surface Convection Parameters,2A66A42AD58A403783AA,0,0.00,0.00,0.00,0,3.75,50.00,10.00,0.19,0,No,No
Surface Convection Parameters,134068DDAD364F55B5A4,0,0.00,0.00,0.00,0,3.75,50.00,10.00,0.19,0,No,No
Surface Convection Parameters,15D536BB1111463BB433,0,100.00,40.00,0.00,0,3.75,50.00,10.00,0.19,0,No,No
Surface Convection Parameters,15D536BB1111463BB433_GLZ_0_3B1B787BEBAE42D6974C,0,100.00,40.00,0.00,0,3.75,50.00,10.00,0.19,2,No,No
Surface Convection Parameters,368CA5EB2212437BAC65,0,60.00,32.00,6.00,0,3.00,10.00,5.00,0.16,4,No,No
Surface Convection Parameters,E9DEF6BFFD0D4E24982D,0,60.00,40.28,6.00,0,3.00,10.00,5.00,0.16,3,No,No
Surface Convection Parameters,E9DEF6BFFD0D4E24982D_GLZ_0_FACD16C8C8724A7C9FE8,0,60.00,40.28,6.00,0,3.00,10.00,5.00,0.16,2,No,No
Surface Convection Parameters,18827043BD1748228F9F_SRFP_0,0,0.00,0.00,0.00,0,3.00,10.00,5.00,0.16,0,No,No
Surface Convection Parameters,18827043BD1748228F9F_SRFP_1,0,0.00,0.00,0.00,0,3.00,10.00,5.00,0.16,0,No,No
Surface Convection Parameters,18827043BD1748228F9F_SRFP_2,0,0.00,0.00,0.00,0,3.00,10.00,5.00,0.16,0,No,No
Surface Convection Parameters,18827043BD1748228F9F_SRFP_3,0,0.00,0.00,0.00,0,3.00,10.00,5.00,0.16,0,No,No
Surface Convection Parameters,18827043BD1748228F9F_SRFP_4,0,0.00,0.00,0.00,0,3.00,10.00,5.00,0.16,0,No,No
Surface Convection Parameters,18827043BD1748228F9F_SRFP_5,0,0.00,0.00,0.00,0,3.00,10.00,5.00,0.16,0,No,No
Surface Convection Parameters,18827043BD1748228F9F_SRFP_6,0,0.00,0.00,0.00,0,3.00,10.00,5.00,0.16,0,No,No
Surface Convection Parameters,18827043BD1748228F9F_SRFP_7,0,0.00,0.00,0.00,0,3.00,10.00,5.00,0.16,0,No,No
Surface Convection Parameters,1940A526EB2349FCAC1E,0,0.00,0.00,0.00,0,3.00,10.00,5.00,0.16,0,No,No
Surface Convection Parameters,1940A526EB2349FCAC1E_GLZ_0_5B10F896F7BD4131A002,0,0.00,0.00,0.00,0,3.00,10.00,5.00,0.16,0,No,No
Surface Convection Parameters,21EFBD8EB290413FBD96,0,0.00,0.00,0.00,0,3.00,10.00,5.00,0.16,0,No,No
Surface Convection Parameters,6EF94013FE2746C399E9,0,0.00,0.00,0.00,0,3.00,10.00,5.00,0.16,0,No,No
Surface Convection Parameters,47C50FED2A7A44E3B20B,0,0.00,0.00,0.00,0,3.00,10.00,5.00,0.16,0,No,No
Surface Convection Parameters,65EDE32B890F4F1F9280,0,60.00,40.28,6.00,0,3.00,10.00,5.00,0.16,4,No,No
Surface Convection Parameters,E792B52EA48241D382FB,0,60.00,32.00,6.00,0,3.00,10.00,5.00,0.16,3,No,No
Surface Convection Parameters,E792B52EA48241D382FB_GLZ_0_1798305B2A5941A4899A,0,60.00,32.00,6.00,0,3.00,10.00,5.00,0.16,2,No,No
Surface Convection Parameters,A492058F47A24CFDB0FC_SRFP_0,0,0.00,0.00,0.00,0,3.00,10.00,5.00,0.16,0,No,No
Surface Convection Parameters,A492058F47A24CFDB0FC_SRFP_1,0,0.00,0.00,0.00,0,3.00,10.00,5.00,0.16,0,No,No
Surface Convection Parameters,A492058F47A24CFDB0FC_SRFP_2,0,0.00,0.00,0.00,0,3.00,10.00,5.00,0.16,0,No,No
Surface Convection Parameters,A492058F47A24CFDB0FC_SRFP_3,0,0.00,0.00,0.00,0,3.00,10.00,5.00,0.16,0,No,No
Surface Convection Parameters,A492058F47A24CFDB0FC_SRFP_4,0,0.00,0.00,0.00,0,3.00,10.00,5.00,0.16,0,No,No
Surface Convection Parameters,A492058F47A24CFDB0FC_SRFP_5,0,0.00,0.00,0.00,0,3.00,10.00,5.00,0.16,0,No,No
Surface Convection Parameters,A492058F47A24CFDB0FC_SRFP_6,0,0.00,0.00,0.00,0,3.00,10.00,5.00,0.16,0,No,No
Surface Convection Parameters,A492058F47A24CFDB0FC_SRFP_7,0,0.00,0.00,0.00,0,3.00,10.00,5.00,0.16,0,No,No
Surface Convection Parameters,1489C5E4864749108183,0,0.00,0.00,0.00,0,3.00,10.00,5.00,0.16,0,No,No
Surface Convection Parameters,1489C5E4864749108183_GLZ_0_F33F73C9CB4C44119EC3,0,0.00,0.00,0.00,0,3.00,10.00,5.00,0.16,0,No,No
Surface Convection Parameters,629F7D9ECD6240458EB2,0,0.00,0.00,0.00,0,3.00,10.00,5.00,0.16,0,No,No
Surface Convection Parameters,607BDE968C67456E8C5E,0,0.00,0.00,0.00,0,3.00,10.00,5.00,0.16,0,No,No
Surface Convection Parameters,FCBCC5A43A364B309038,0,0.00,0.00,0.00,0,3.00,10.00,5.00,0.16,0,No,No
Surface Convection Parameters,A9013CCDF7514C79B799,0,60.00,40.28,6.00,0,3.00,10.00,5.00,0.16,4,No,No
Surface Convection Parameters,0BB252B337B243D1A9CA,0,60.00,40.28,6.00,0,3.00,10.00,5.00,0.16,3,No,No
Surface Convection Parameters,0BB252B337B243D1A9CA_GLZ_0_F5CF2156590D48F8B885,0,60.00,40.28,6.00,0,3.00,10.00,5.00,0.16,2,No,No
Surface Convection Parameters,1B4A70146E884417A6C2_SRFP_0,0,0.00,0.00,0.00,0,3.00,10.00,5.00,0.16,0,No,No
Surface Convection Parameters,1B4A70146E884417A6C2_SRFP_1,0,0.00,0.00,0.00,0,3.00,10.00,5.00,0.16,0,No,No
Surface Convection Parameters,1B4A70146E884417A6C2_SRFP_2,0,0.00,0.00,0.00,0,3.00,10.00,5.00,0.16,0,No,No
Surface Convection Parameters,1B4A70146E884417A6C2_SRFP_3,0,0.00,0.00,0.00,0,3.00,10.00,5.00,0.16,0,No,No
Surface Convection Parameters,1B4A70146E884417A6C2_SRFP_4,0,0.00,0.00,0.00,0,3.00,10.00,5.00,0.16,0,No,No
Surface Convection Parameters,1B4A70146E884417A6C2_SRFP_5,0,0.00,0.00,0.00,0,3.00,10.00,5.00,0.16,0,No,No
Surface Convection Parameters,1B4A70146E884417A6C2_SRFP_6,0,0.00,0.00,0.00,0,3.00,10.00,5.00,0.16,0,No,No
Surface Convection Parameters,1B4A70146E884417A6C2_SRFP_7,0,0.00,0.00,0.00,0,3.00,10.00,5.00,0.16,0,No,No
Surface Convection Parameters,9A94ACA56A16440990CD,0,0.00,0.00,0.00,0,3.00,10.00,5.00,0.16,0,No,No
Surface Convection Parameters,9A94ACA56A16440990CD_GLZ_0_BEDFD86103A246C58282,0,0.00,0.00,0.00,0,3.00,10.00,5.00,0.16,0,No,No
Surface Convection Parameters,E4458FF87EE04E219343,0,0.00,0.00,0.00,0,3.00,10.00,5.00,0.16,0,No,No
Surface Convection Parameters,92EBA5E7333F41208130,0,0.00,0.00,0.00,0,3.00,10.00,5.00,0.16,0,No,No
Surface Convection Parameters,D4EE8901333D4106849A,0,0.00,0.00,0.00,0,3.00,10.00,5.00,0.16,0,No,No
! <ZoneVentilation Airflow Stats Nominal>,Name,Schedule Name,Zone Name, Zone Floor Area {m2}, # Zone Occupants,Design Volume Flow Rate {m3/s},Volume Flow Rate/Floor Area {m3/s/m2},Volume Flow Rate/person Area {m3/s/person},ACH - Air Changes per Hour,Fan Type {Exhaust;Intake;Natural},Fan Pressure Rise {Pa},Fan Efficiency {},Equation A - Constant Term Coefficient {},Equation B - Temperature Term Coefficient {1/C},Equation C - Velocity Term Coefficient {s/m}, Equation D - Velocity Squared Term Coefficient {s2/m2},Minimum Indoor Temperature{C}/Schedule,Maximum Indoor Temperature{C}/Schedule,Delta Temperature{C}/Schedule,Minimum Outdoor Temperature{C}/Schedule,Maximum Outdoor Temperature{C}/Schedule,Maximum WindSpeed{m/s}
 ZoneVentilation Airflow Stats Nominal, ZONE1 INFILTRATION,INFILTRATIONYEAR,ZONE1,100.00,50.0,2.270E-002,2.270E-004,4.540E-004,0.218,Natural,0.000,1.0,1.000,0.000,0.000,0.000,-100.00,100.00,-100.00,-100.00,100.00,40.00
 ZoneVentilation Airflow Stats Nominal, ZONE2 INFILTRATION,INFILTRATIONYEAR,ZONE2,25.00,12.5,5.675E-003,2.270E-004,4.540E-004,0.272,Natural,0.000,1.0,1.000,0.000,0.000,0.000,-100.00,100.00,-100.00,-100.00,100.00,40.00
 ZoneVentilation Airflow Stats Nominal, ZONE3 INFILTRATION,INFILTRATIONYEAR,ZONE3,25.00,12.5,5.675E-003,2.270E-004,4.540E-004,0.272,Natural,0.000,1.0,1.000,0.000,0.000,0.000,-100.00,100.00,-100.00,-100.00,100.00,40.00
 ZoneVentilation Airflow Stats Nominal, ZONE4 INFILTRATION,INFILTRATIONYEAR,ZONE4,25.00,12.5,5.675E-003,2.270E-004,4.540E-004,0.272,Natural,0.000,1.0,1.000,0.000,0.000,0.000,-100.00,100.00,-100.00,-100.00,100.00,40.00
 ZoneVentilation Airflow Stats Nominal, ZONE1 VENTILATION,VENTILATIONYEAR,ZONE1,100.00,50.0,0.750,7.500E-003,1.500E-002,7.200,Natural,0.000,1.0,1.000,0.000,0.000,0.000,-100.00,100.00,-100.00,-100.00,100.00,40.00
 ZoneVentilation Airflow Stats Nominal, ZONE2 VENTILATION,VENTILATIONYEAR,ZONE2,25.00,12.5,0.188,7.500E-003,1.500E-002,9.000,Natural,0.000,1.0,1.000,0.000,0.000,0.000,-100.00,100.00,-100.00,-100.00,100.00,40.00
 ZoneVentilation Airflow Stats Nominal, ZONE3 VENTILATION,VENTILATIONYEAR,ZONE3,25.00,12.5,0.188,7.500E-003,1.500E-002,9.000,Natural,0.000,1.0,1.000,0.000,0.000,0.000,-100.00,100.00,-100.00,-100.00,100.00,40.00
 ZoneVentilation Airflow Stats Nominal, ZONE4 VENTILATION,VENTILATIONYEAR,ZONE4,25.00,12.5,0.188,7.500E-003,1.500E-002,9.000,Natural,0.000,1.0,1.000,0.000,0.000,0.000,-100.00,100.00,-100.00,-100.00,100.00,40.00
! <Mixing Airflow Stats Nominal>,Name,Schedule Name,Zone Name, Zone Floor Area {m2}, # Zone Occupants,Design Volume Flow Rate {m3/s},Volume Flow Rate/Floor Area {m3/s/m2},Volume Flow Rate/person Area {m3/s/person},ACH - Air Changes per Hour,From/Source Zone,Delta Temperature {C}
 Mixing Airflow Stats Nominal, ZONE1ZONE3AIRMIX0,ALWAYS ON,ZONE1,100.00,50.0,0.154,1.541E-003,3.082E-003,1.479,ZONE3,0.00
 Mixing Airflow Stats Nominal, ZONE2ZONE4AIRMIX0,ALWAYS ON,ZONE2,25.00,12.5,0.154,6.163E-003,1.233E-002,7.396,ZONE4,0.00
 Mixing Airflow Stats Nominal, ZONE3ZONE1AIRMIX0,ALWAYS ON,ZONE3,25.00,12.5,0.154,6.163E-003,1.233E-002,7.396,ZONE1,0.00
 Mixing Airflow Stats Nominal, ZONE4ZONE2AIRMIX0,ALWAYS ON,ZONE4,25.00,12.5,0.154,6.163E-003,1.233E-002,7.396,ZONE2,0.00
! <AirFlow Model>, Simple
 AirFlow Model, Simple
! <RoomAir Model>, Zone Name, Mixing/Mundt/UCSDDV/UCSDCV/UCSDUFI/UCSDUFE/User Defined
RoomAir Model,ZONE1,Mixing/Well-Stirred
RoomAir Model,ZONE2,Mixing/Well-Stirred
RoomAir Model,ZONE3,Mixing/Well-Stirred
RoomAir Model,ZONE4,Mixing/Well-Stirred
! <AirflowNetwork Model:Control>, No Multizone or Distribution/Multizone with Distribution/Multizone without Distribution/Multizone with Distribution only during Fan Operation
AirflowNetwork Model:Control,NoMultizoneOrDistribution
! <Zone Volume Capacitance Multiplier>, Sensible Heat Capacity Multiplier, Moisture Capacity Multiplier, Carbon Dioxide Capacity Multiplier, Generic Contaminant Capacity Multiplier
Zone Volume Capacitance Multiplier,   1.000 ,   1.000,   1.000,   1.000
! <Zone Surfaces>,Zone Name,# Surfaces
! <Shading Surfaces>,Number of Shading Surfaces,# Surfaces
! <HeatTransfer Surface>,Surface Name,Surface Class,Base Surface,Heat Transfer Algorithm,Construction,Nominal U (w/o film coefs) {W/m2-K},Nominal U (with film coefs) {W/m2-K},Solar Diffusing,Area (Net) {m2},Area (Gross) {m2},Area (Sunlit Calc) {m2},Azimuth {deg},Tilt {deg},~Width {m},~Height {m},Reveal {m},ExtBoundCondition,ExtConvCoeffCalc,IntConvCoeffCalc,SunExposure,WindExposure,ViewFactorToGround,ViewFactorToSky,ViewFactorToGround-IR,ViewFactorToSky-IR,#Sides
! <Shading Surface>,Surface Name,Surface Class,Base Surface,Heat Transfer Algorithm,Transmittance Schedule,Min Schedule Value,Max Schedule Value,Solar Diffusing,Area (Net) {m2},Area (Gross) {m2},Area (Sunlit Calc) {m2},Azimuth {deg},Tilt {deg},~Width {m},~Height {m},Reveal {m},ExtBoundCondition,ExtConvCoeffCalc,IntConvCoeffCalc,SunExposure,WindExposure,ViewFactorToGround,ViewFactorToSky,ViewFactorToGround-IR,ViewFactorToSky-IR,#Sides
! <Frame/Divider Surface>,Surface Name,Surface Class,Base Surface,Heat Transfer Algorithm,Construction,Nominal U (w/o film coefs) {W/m2-K},Nominal U (with film coefs) {W/m2-K},Solar Diffusing,Area (Net) {m2},Area (Gross) {m2},Area (Sunlit Calc) {m2},Azimuth {deg},Tilt {deg},~Width {m},~Height {m},Reveal {m}
Shading Surfaces,Number of Shading Surfaces,32
Shading Surface,SHDSRF_0_0_DDACA7CD-88C8-46C3-9DC0-0FC04362A939_0,Detached Shading:Building,,None,,0.0,0.0, ,0.90,0.90,0.90,180.00,0.00,3.00,0.30,,,,,,,,,,,4
Shading Surface,Mir-SHDSRF_0_0_DDACA7CD-88C8-46C3-9DC0-0FC04362A939_0,Detached Shading:Building,,None,,0.0,0.0, ,0.90,0.90,0.90,0.00,180.00,3.00,0.30,,,,,,,,,,,4
Shading Surface,SHDSRF_1_0_6D4414A5-3479-4238-8DEB-E62150A51133_0,Detached Shading:Building,,None,,0.0,0.0, ,0.90,0.90,0.90,180.00,0.00,3.00,0.30,,,,,,,,,,,4
Shading Surface,Mir-SHDSRF_1_0_6D4414A5-3479-4238-8DEB-E62150A51133_0,Detached Shading:Building,,None,,0.0,0.0, ,0.90,0.90,0.90,0.00,180.00,3.00,0.30,,,,,,,,,,,4
Shading Surface,SHDSRF_2_0_548ACABA-A54C-4746-9A6A-212AA5E8786F_0,Detached Shading:Building,,None,,0.0,0.0, ,0.90,0.90,0.90,180.00,0.00,3.00,0.30,,,,,,,,,,,4
Shading Surface,Mir-SHDSRF_2_0_548ACABA-A54C-4746-9A6A-212AA5E8786F_0,Detached Shading:Building,,None,,0.0,0.0, ,0.90,0.90,0.90,0.00,180.00,3.00,0.30,,,,,,,,,,,4
Shading Surface,SHDSRF_3_0_33BAAE6C-8965-4CAD-90A9-70738F57D035_0,Detached Shading:Building,,None,,0.0,0.0, ,0.90,0.90,0.90,180.00,0.00,3.00,0.30,,,,,,,,,,,4
Shading Surface,Mir-SHDSRF_3_0_33BAAE6C-8965-4CAD-90A9-70738F57D035_0,Detached Shading:Building,,None,,0.0,0.0, ,0.90,0.90,0.90,0.00,180.00,3.00,0.30,,,,,,,,,,,4
Shading Surface,SHDSRF_4_0_5077A5D0-E86C-45F8-8D6A-400E3A9B40B1_0,Detached Shading:Building,,None,,0.0,0.0, ,0.90,0.90,0.90,180.00,0.00,0.30,3.00,,,,,,,,,,,4
Shading Surface,Mir-SHDSRF_4_0_5077A5D0-E86C-45F8-8D6A-400E3A9B40B1_0,Detached Shading:Building,,None,,0.0,0.0, ,0.90,0.90,0.90,0.00,180.00,0.30,3.00,,,,,,,,,,,4
Shading Surface,SHDSRF_5_0_7A5D5AB5-AD15-4421-8EA5-DE6CD14B14C7_0,Detached Shading:Building,,None,,0.0,0.0, ,0.90,0.90,0.90,180.00,0.00,0.30,3.00,,,,,,,,,,,4
Shading Surface,Mir-SHDSRF_5_0_7A5D5AB5-AD15-4421-8EA5-DE6CD14B14C7_0,Detached Shading:Building,,None,,0.0,0.0, ,0.90,0.90,0.90,0.00,180.00,0.30,3.00,,,,,,,,,,,4
Shading Surface,SHDSRF_6_0_AFD421F8-EF76-48BA-9167-9B9060345026_0,Detached Shading:Building,,None,,0.0,0.0, ,0.90,0.90,0.90,180.00,0.00,3.00,0.30,,,,,,,,,,,4
Shading Surface,Mir-SHDSRF_6_0_AFD421F8-EF76-48BA-9167-9B9060345026_0,Detached Shading:Building,,None,,0.0,0.0, ,0.90,0.90,0.90,0.00,180.00,3.00,0.30,,,,,,,,,,,4
Shading Surface,SHDSRF_7_0_61743848-80D8-4A65-9A87-471D87560E6E_0,Detached Shading:Building,,None,,0.0,0.0, ,0.90,0.90,0.90,180.00,0.00,3.00,0.30,,,,,,,,,,,4
Shading Surface,Mir-SHDSRF_7_0_61743848-80D8-4A65-9A87-471D87560E6E_0,Detached Shading:Building,,None,,0.0,0.0, ,0.90,0.90,0.90,0.00,180.00,3.00,0.30,,,,,,,,,,,4
Shading Surface,SHDSRF_8_0_556DDDAA-4D81-4608-B374-86B235C13FFF_0,Detached Shading:Building,,None,,0.0,0.0, ,0.90,0.90,0.90,180.00,0.00,0.30,3.00,,,,,,,,,,,4
Shading Surface,Mir-SHDSRF_8_0_556DDDAA-4D81-4608-B374-86B235C13FFF_0,Detached Shading:Building,,None,,0.0,0.0, ,0.90,0.90,0.90,0.00,180.00,0.30,3.00,,,,,,,,,,,4
Shading Surface,SHDSRF_9_0_5E77C3F9-1FA6-4BAF-992D-D611DA9A44F1_0,Detached Shading:Building,,None,,0.0,0.0, ,0.90,0.90,0.90,180.00,0.00,0.30,3.00,,,,,,,,,,,4
Shading Surface,Mir-SHDSRF_9_0_5E77C3F9-1FA6-4BAF-992D-D611DA9A44F1_0,Detached Shading:Building,,None,,0.0,0.0, ,0.90,0.90,0.90,0.00,180.00,0.30,3.00,,,,,,,,,,,4
Shading Surface,SHDSRF_10_0_538A0872-244F-4F40-A653-ABA6C8F24DF9_0,Detached Shading:Building,,None,,0.0,0.0, ,0.90,0.90,0.90,180.00,0.00,0.30,3.00,,,,,,,,,,,4
Shading Surface,Mir-SHDSRF_10_0_538A0872-244F-4F40-A653-ABA6C8F24DF9_0,Detached Shading:Building,,None,,0.0,0.0, ,0.90,0.90,0.90,0.00,180.00,0.30,3.00,,,,,,,,,,,4
Shading Surface,SHDSRF_11_0_26236BF2-E1F2-4B54-B9E2-828621595BA8_0,Detached Shading:Building,,None,,0.0,0.0, ,0.90,0.90,0.90,180.00,0.00,0.30,3.00,,,,,,,,,,,4
Shading Surface,Mir-SHDSRF_11_0_26236BF2-E1F2-4B54-B9E2-828621595BA8_0,Detached Shading:Building,,None,,0.0,0.0, ,0.90,0.90,0.90,0.00,180.00,0.30,3.00,,,,,,,,,,,4
Shading Surface,SHDSRF_12_0_B332089A-9E62-4AFB-93F4-EABFC470390F_0,Detached Shading:Building,,None,,0.0,0.0, ,0.90,0.90,0.90,180.00,0.00,0.30,3.00,,,,,,,,,,,4
Shading Surface,Mir-SHDSRF_12_0_B332089A-9E62-4AFB-93F4-EABFC470390F_0,Detached Shading:Building,,None,,0.0,0.0, ,0.90,0.90,0.90,0.00,180.00,0.30,3.00,,,,,,,,,,,4
Shading Surface,SHDSRF_13_0_A5302187-E94B-429A-9746-E0077FF0245B_0,Detached Shading:Building,,None,,0.0,0.0, ,0.90,0.90,0.90,180.00,0.00,0.30,3.00,,,,,,,,,,,4
Shading Surface,Mir-SHDSRF_13_0_A5302187-E94B-429A-9746-E0077FF0245B_0,Detached Shading:Building,,None,,0.0,0.0, ,0.90,0.90,0.90,0.00,180.00,0.30,3.00,,,,,,,,,,,4
Shading Surface,SHDSRF_14_0_451847BD-39E0-4F4F-8A0A-42E41311D835_0,Detached Shading:Building,,None,,0.0,0.0, ,0.90,0.90,0.90,180.00,0.00,3.00,0.30,,,,,,,,,,,4
Shading Surface,Mir-SHDSRF_14_0_451847BD-39E0-4F4F-8A0A-42E41311D835_0,Detached Shading:Building,,None,,0.0,0.0, ,0.90,0.90,0.90,0.00,180.00,3.00,0.30,,,,,,,,,,,4
Shading Surface,SHDSRF_15_0_7086DE1E-AD81-41D8-809B-4895F3E09900_0,Detached Shading:Building,,None,,0.0,0.0, ,0.90,0.90,0.90,180.00,0.00,3.00,0.30,,,,,,,,,,,4
Shading Surface,Mir-SHDSRF_15_0_7086DE1E-AD81-41D8-809B-4895F3E09900_0,Detached Shading:Building,,None,,0.0,0.0, ,0.90,0.90,0.90,0.00,180.00,3.00,0.30,,,,,,,,,,,4
Zone Surfaces,ZONE1,28
HeatTransfer Surface,466564015B2F43199C1B,Wall,,CTF - ConductionTransferFunction,EXTERIOR WALL,0.220,0.213,,25.20,30.00,25.20,180.00,90.00,10.00,3.00,0.00,ExternalEnvironment,DOE-2,ASHRAETARP,SunExposed,WindExposed,0.50,0.50,0.50,0.50,4
HeatTransfer Surface,466564015B2F43199C1B_GLZ_0_F3AAB6FB8BD3451FBA7D,Window,466564015B2F43199C1B,Window5 Detailed Fenestration,EXTERIOR WINDOW,N/A,1.600,No,4.80,4.80,4.80,180.00,90.00,3.00,1.60,0.00,ExternalEnvironment,DOE-2,ASHRAETARP,SunExposed,WindExposed,0.50,0.50,0.64,0.36,4
HeatTransfer Surface,AA69F423B82B48AAAA7E,Wall,,CTF - ConductionTransferFunction,EXTERIOR WALL,0.220,0.213,,10.20,15.00,10.20,180.00,90.00,5.00,3.00,0.00,ExternalEnvironment,DOE-2,ASHRAETARP,SunExposed,WindExposed,0.50,0.50,0.51,0.49,4
HeatTransfer Surface,AA69F423B82B48AAAA7E_GLZ_0_706693F7F3F64B68969E,Window,AA69F423B82B48AAAA7E,Window5 Detailed Fenestration,EXTERIOR WINDOW,N/A,1.600,No,4.80,4.80,4.80,180.00,90.00,3.00,1.60,0.00,ExternalEnvironment,DOE-2,ASHRAETARP,SunExposed,WindExposed,0.50,0.50,0.64,0.36,4
HeatTransfer Surface,FD8A070E4BE54D88AE3B,Wall,,CTF - ConductionTransferFunction,EXTERIOR WALL,0.220,0.213,,25.20,30.00,25.20,270.00,90.00,10.00,3.00,0.00,ExternalEnvironment,DOE-2,ASHRAETARP,SunExposed,WindExposed,0.50,0.50,0.50,0.50,4
HeatTransfer Surface,FD8A070E4BE54D88AE3B_GLZ_0_B285641B64A742589E03,Window,FD8A070E4BE54D88AE3B,Window5 Detailed Fenestration,EXTERIOR WINDOW,N/A,1.600,No,4.80,4.80,4.80,270.00,90.00,3.00,1.60,0.00,ExternalEnvironment,DOE-2,ASHRAETARP,SunExposed,WindExposed,0.50,0.50,0.64,0.36,4
HeatTransfer Surface,D9E98E2F98CA44578C65,Wall,,CTF - ConductionTransferFunction,EXTERIOR WALL,0.220,0.213,,15.00,15.00,15.00,270.00,90.00,5.00,3.00,0.00,ExternalEnvironment,DOE-2,ASHRAETARP,SunExposed,WindExposed,0.50,0.50,0.50,0.50,4
HeatTransfer Surface,AF6581C9E0E3475DA994,Wall,,CTF - ConductionTransferFunction,EXTERIOR WALL,0.220,0.213,,25.20,30.00,25.20,0.00,90.00,10.00,3.00,0.00,ExternalEnvironment,DOE-2,ASHRAETARP,SunExposed,WindExposed,0.50,0.50,0.50,0.50,4
HeatTransfer Surface,AF6581C9E0E3475DA994_GLZ_0_A0DF08794DAE4C1B8D9A,Window,AF6581C9E0E3475DA994,Window5 Detailed Fenestration,EXTERIOR WINDOW,N/A,1.600,No,4.80,4.80,4.80,0.00,90.00,3.00,1.60,0.00,ExternalEnvironment,DOE-2,ASHRAETARP,SunExposed,WindExposed,0.50,0.50,0.64,0.36,4
HeatTransfer Surface,3675D61B3AAB405AA64E,Wall,,CTF - ConductionTransferFunction,EXTERIOR WALL,0.220,0.213,,25.20,30.00,25.20,90.00,90.00,10.00,3.00,0.00,ExternalEnvironment,DOE-2,ASHRAETARP,SunExposed,WindExposed,0.50,0.50,0.50,0.50,4
HeatTransfer Surface,3675D61B3AAB405AA64E_GLZ_0_C015151E9B4341638ED8,Window,3675D61B3AAB405AA64E,Window5 Detailed Fenestration,EXTERIOR WINDOW,N/A,1.600,No,4.80,4.80,4.80,90.00,90.00,3.00,1.60,0.00,ExternalEnvironment,DOE-2,ASHRAETARP,SunExposed,WindExposed,0.50,0.50,0.64,0.36,4
HeatTransfer Surface,3450B9CAC0D14E639808_SRFP_0,Wall,,CTF - ConductionTransferFunction,INTERIOR WALL,0.500,0.465,,1.60,1.60,1.60,0.00,90.00,2.04,2.83,0.00,A492058F47A24CFDB0FC_SRFP_0,Other/Same Surface Int Conv,ASHRAETARP,NoSun,NoWind,0.50,0.50,0.50,0.50,3
HeatTransfer Surface,3450B9CAC0D14E639808_SRFP_1,Wall,,CTF - ConductionTransferFunction,INTERIOR WALL,0.500,0.465,,3.00,3.00,3.00,0.00,90.00,2.83,3.00,0.00,A492058F47A24CFDB0FC_SRFP_1,Other/Same Surface Int Conv,ASHRAETARP,NoSun,NoWind,0.50,0.50,0.50,0.50,3
HeatTransfer Surface,3450B9CAC0D14E639808_SRFP_2,Wall,,CTF - ConductionTransferFunction,INTERIOR WALL,0.500,0.465,,0.50,0.50,0.50,0.00,90.00,2.24,3.16,0.00,A492058F47A24CFDB0FC_SRFP_2,Other/Same Surface Int Conv,ASHRAETARP,NoSun,NoWind,0.50,0.50,0.50,0.50,3
HeatTransfer Surface,3450B9CAC0D14E639808_SRFP_3,Wall,,CTF - ConductionTransferFunction,INTERIOR WALL,0.500,0.465,,2.50,2.50,2.50,0.00,90.00,3.16,5.00,0.00,A492058F47A24CFDB0FC_SRFP_3,Other/Same Surface Int Conv,ASHRAETARP,NoSun,NoWind,0.50,0.50,0.50,0.50,3
HeatTransfer Surface,3450B9CAC0D14E639808_SRFP_4,Wall,,CTF - ConductionTransferFunction,INTERIOR WALL,0.500,0.465,,0.20,0.20,0.20,0.00,90.00,1.00,3.03,0.00,A492058F47A24CFDB0FC_SRFP_4,Other/Same Surface Int Conv,ASHRAETARP,NoSun,NoWind,0.50,0.50,0.50,0.50,3
HeatTransfer Surface,3450B9CAC0D14E639808_SRFP_5,Wall,,CTF - ConductionTransferFunction,INTERIOR WALL,0.500,0.465,,1.60,1.60,1.60,0.00,90.00,2.24,3.28,0.00,A492058F47A24CFDB0FC_SRFP_5,Other/Same Surface Int Conv,ASHRAETARP,NoSun,NoWind,0.50,0.50,0.50,0.50,3
HeatTransfer Surface,3450B9CAC0D14E639808_SRFP_6,Wall,,CTF - ConductionTransferFunction,INTERIOR WALL,0.500,0.465,,3.00,3.00,3.00,0.00,90.00,3.28,3.00,0.00,A492058F47A24CFDB0FC_SRFP_6,Other/Same Surface Int Conv,ASHRAETARP,NoSun,NoWind,0.50,0.50,0.50,0.50,3
HeatTransfer Surface,3450B9CAC0D14E639808_SRFP_7,Wall,,CTF - ConductionTransferFunction,INTERIOR WALL,0.500,0.465,,1.00,1.00,1.00,0.00,90.00,5.00,3.03,0.00,A492058F47A24CFDB0FC_SRFP_7,Other/Same Surface Int Conv,ASHRAETARP,NoSun,NoWind,0.50,0.50,0.50,0.50,3
HeatTransfer Surface,749EC30EECD34DC4A25C,Wall,,CTF - ConductionTransferFunction,INTERIOR WALL,0.500,0.465,,13.40,15.00,13.40,90.00,90.00,5.00,3.00,0.00,1940A526EB2349FCAC1E,Other/Same Surface Int Conv,ASHRAETARP,NoSun,NoWind,0.50,0.50,0.50,0.50,4
HeatTransfer Surface,749EC30EECD34DC4A25C_GLZ_0_7C286FED11CF4D82B23B,Window,749EC30EECD34DC4A25C,Window5 Detailed Fenestration,INTERIOR WINDOW,N/A,5.787,No,1.60,1.60,1.60,90.00,90.00,1.00,1.60,0.00,1940A526EB2349FCAC1E_GLZ_0_5B10F896F7BD4131A002,Other/Same Surface Int Conv,ASHRAETARP,NoSun,NoWind,0.50,0.50,0.50,0.50,4
HeatTransfer Surface,F54267983C3742E19DB3,Wall,,CTF - ConductionTransferFunction,AIR WALL,13.100,4.424,,1.60,1.60,1.60,0.00,90.00,1.00,1.60,0.00,629F7D9ECD6240458EB2,Other/Same Surface Int Conv,ASHRAETARP,NoSun,NoWind,0.50,0.50,0.50,0.50,4
HeatTransfer Surface,10AE508A81264C718D07,Floor,,CTF - ConductionTransferFunction,INTERIOR FLOOR,1.000,0.804,,25.00,25.00,25.00,90.00,180.00,5.00,5.00,0.00,FCBCC5A43A364B309038,Other/Same Surface Int Conv,ASHRAETARP,NoSun,NoWind,1.00,0.00,1.00,0.00,4
HeatTransfer Surface,91E9F8EB13224A229BEE,Floor,,CTF - ConductionTransferFunction,INTERIOR FLOOR,1.000,0.804,,25.00,25.00,25.00,90.00,180.00,5.00,5.00,0.00,D4EE8901333D4106849A,Other/Same Surface Int Conv,ASHRAETARP,NoSun,NoWind,1.00,0.00,1.00,0.00,4
HeatTransfer Surface,2A66A42AD58A403783AA,Floor,,CTF - ConductionTransferFunction,INTERIOR FLOOR,1.000,0.804,,25.00,25.00,25.00,90.00,180.00,5.00,5.00,0.00,47C50FED2A7A44E3B20B,Other/Same Surface Int Conv,ASHRAETARP,NoSun,NoWind,1.00,0.00,1.00,0.00,4
HeatTransfer Surface,134068DDAD364F55B5A4,Floor,,CTF - ConductionTransferFunction,EXTERIOR FLOOR,0.220,0.209,,25.00,25.00,25.00,90.00,180.00,5.00,5.00,0.00,Ground,N/A-Ground,ASHRAETARP,NoSun,NoWind,1.00,0.00,1.00,0.00,4
HeatTransfer Surface,15D536BB1111463BB433,Roof,,CTF - ConductionTransferFunction,EXTERIOR ROOF,0.180,0.174,,96.00,100.00,96.00,180.00,0.00,10.00,10.00,0.00,ExternalEnvironment,DOE-2,ASHRAETARP,SunExposed,WindExposed,0.00,1.00,0.00,1.00,4
HeatTransfer Surface,15D536BB1111463BB433_GLZ_0_3B1B787BEBAE42D6974C,Window,15D536BB1111463BB433,Window5 Detailed Fenestration,EXTERIOR WINDOW,N/A,1.600,No,4.00,4.00,4.00,180.00,0.00,2.00,2.00,0.00,ExternalEnvironment,DOE-2,ASHRAETARP,SunExposed,WindExposed,0.00,1.00,0.00,1.00,4
Zone Surfaces,ZONE2,16
HeatTransfer Surface,368CA5EB2212437BAC65,Wall,,CTF - ConductionTransferFunction,EXTERIOR WALL,0.220,0.213,,15.00,15.00,15.00,180.00,90.00,5.00,3.00,0.00,ExternalEnvironment,DOE-2,ASHRAETARP,SunExposed,WindExposed,0.50,0.50,0.50,0.50,4
HeatTransfer Surface,E9DEF6BFFD0D4E24982D,Wall,,CTF - ConductionTransferFunction,EXTERIOR WALL,0.220,0.213,,10.20,15.00,10.20,90.00,90.00,5.00,3.00,0.00,ExternalEnvironment,DOE-2,ASHRAETARP,SunExposed,WindExposed,0.50,0.50,0.51,0.49,4
HeatTransfer Surface,E9DEF6BFFD0D4E24982D_GLZ_0_FACD16C8C8724A7C9FE8,Window,E9DEF6BFFD0D4E24982D,Window5 Detailed Fenestration,EXTERIOR WINDOW,N/A,1.600,No,4.80,4.80,4.80,90.00,90.00,3.00,1.60,0.00,ExternalEnvironment,DOE-2,ASHRAETARP,SunExposed,WindExposed,0.50,0.50,0.64,0.36,4
HeatTransfer Surface,18827043BD1748228F9F_SRFP_0,Wall,,CTF - ConductionTransferFunction,INTERIOR WALL,0.500,0.465,,1.60,1.60,1.60,0.00,90.00,2.04,2.83,0.00,1B4A70146E884417A6C2_SRFP_0,Other/Same Surface Int Conv,ASHRAETARP,NoSun,NoWind,0.50,0.50,0.50,0.50,3
HeatTransfer Surface,18827043BD1748228F9F_SRFP_1,Wall,,CTF - ConductionTransferFunction,INTERIOR WALL,0.500,0.465,,3.00,3.00,3.00,0.00,90.00,2.83,3.00,0.00,1B4A70146E884417A6C2_SRFP_1,Other/Same Surface Int Conv,ASHRAETARP,NoSun,NoWind,0.50,0.50,0.50,0.50,3
HeatTransfer Surface,18827043BD1748228F9F_SRFP_2,Wall,,CTF - ConductionTransferFunction,INTERIOR WALL,0.500,0.465,,0.50,0.50,0.50,0.00,90.00,2.24,3.16,0.00,1B4A70146E884417A6C2_SRFP_2,Other/Same Surface Int Conv,ASHRAETARP,NoSun,NoWind,0.50,0.50,0.50,0.50,3
HeatTransfer Surface,18827043BD1748228F9F_SRFP_3,Wall,,CTF - ConductionTransferFunction,INTERIOR WALL,0.500,0.465,,2.50,2.50,2.50,0.00,90.00,3.16,5.00,0.00,1B4A70146E884417A6C2_SRFP_3,Other/Same Surface Int Conv,ASHRAETARP,NoSun,NoWind,0.50,0.50,0.50,0.50,3
HeatTransfer Surface,18827043BD1748228F9F_SRFP_4,Wall,,CTF - ConductionTransferFunction,INTERIOR WALL,0.500,0.465,,0.20,0.20,0.20,0.00,90.00,1.00,3.03,0.00,1B4A70146E884417A6C2_SRFP_4,Other/Same Surface Int Conv,ASHRAETARP,NoSun,NoWind,0.50,0.50,0.50,0.50,3
HeatTransfer Surface,18827043BD1748228F9F_SRFP_5,Wall,,CTF - ConductionTransferFunction,INTERIOR WALL,0.500,0.465,,1.60,1.60,1.60,0.00,90.00,2.24,3.28,0.00,1B4A70146E884417A6C2_SRFP_5,Other/Same Surface Int Conv,ASHRAETARP,NoSun,NoWind,0.50,0.50,0.50,0.50,3
HeatTransfer Surface,18827043BD1748228F9F_SRFP_6,Wall,,CTF - ConductionTransferFunction,INTERIOR WALL,0.500,0.465,,3.00,3.00,3.00,0.00,90.00,3.28,3.00,0.00,1B4A70146E884417A6C2_SRFP_6,Other/Same Surface Int Conv,ASHRAETARP,NoSun,NoWind,0.50,0.50,0.50,0.50,3
HeatTransfer Surface,18827043BD1748228F9F_SRFP_7,Wall,,CTF - ConductionTransferFunction,INTERIOR WALL,0.500,0.465,,1.00,1.00,1.00,0.00,90.00,5.00,3.03,0.00,1B4A70146E884417A6C2_SRFP_7,Other/Same Surface Int Conv,ASHRAETARP,NoSun,NoWind,0.50,0.50,0.50,0.50,3
HeatTransfer Surface,1940A526EB2349FCAC1E,Wall,,CTF - ConductionTransferFunction,INTERIOR WALL,0.500,0.465,,13.40,15.00,13.40,270.00,90.00,5.00,3.00,0.00,749EC30EECD34DC4A25C,Other/Same Surface Int Conv,ASHRAETARP,NoSun,NoWind,0.50,0.50,0.50,0.50,4
HeatTransfer Surface,1940A526EB2349FCAC1E_GLZ_0_5B10F896F7BD4131A002,Window,1940A526EB2349FCAC1E,Window5 Detailed Fenestration,INTERIOR WINDOW,N/A,5.787,No,1.60,1.60,1.60,270.00,90.00,1.60,1.00,0.00,749EC30EECD34DC4A25C_GLZ_0_7C286FED11CF4D82B23B,Other/Same Surface Int Conv,ASHRAETARP,NoSun,NoWind,0.50,0.50,0.50,0.50,4
HeatTransfer Surface,21EFBD8EB290413FBD96,Wall,,CTF - ConductionTransferFunction,AIR WALL,13.100,4.424,,1.60,1.60,1.60,0.00,90.00,1.00,1.60,0.00,E4458FF87EE04E219343,Other/Same Surface Int Conv,ASHRAETARP,NoSun,NoWind,0.50,0.50,0.50,0.50,4
HeatTransfer Surface,6EF94013FE2746C399E9,Floor,,CTF - ConductionTransferFunction,EXTERIOR FLOOR,0.220,0.209,,25.00,25.00,25.00,90.00,180.00,5.00,5.00,0.00,Ground,N/A-Ground,ASHRAETARP,NoSun,NoWind,1.00,0.00,1.00,0.00,4
HeatTransfer Surface,47C50FED2A7A44E3B20B,Roof,,CTF - ConductionTransferFunction,INTERIOR CEILING,1.000,0.841,,25.00,25.00,25.00,180.00,0.00,5.00,5.00,0.00,2A66A42AD58A403783AA,Other/Same Surface Int Conv,ASHRAETARP,NoSun,NoWind,0.00,1.00,0.00,1.00,4
Zone Surfaces,ZONE3,16
HeatTransfer Surface,65EDE32B890F4F1F9280,Wall,,CTF - ConductionTransferFunction,EXTERIOR WALL,0.220,0.213,,15.00,15.00,15.00,0.00,90.00,5.00,3.00,0.00,ExternalEnvironment,DOE-2,ASHRAETARP,SunExposed,WindExposed,0.50,0.50,0.50,0.50,4
HeatTransfer Surface,E792B52EA48241D382FB,Wall,,CTF - ConductionTransferFunction,EXTERIOR WALL,0.220,0.213,,10.20,15.00,10.20,270.00,90.00,5.00,3.00,0.00,ExternalEnvironment,DOE-2,ASHRAETARP,SunExposed,WindExposed,0.50,0.50,0.51,0.49,4
HeatTransfer Surface,E792B52EA48241D382FB_GLZ_0_1798305B2A5941A4899A,Window,E792B52EA48241D382FB,Window5 Detailed Fenestration,EXTERIOR WINDOW,N/A,1.600,No,4.80,4.80,4.80,270.00,90.00,3.00,1.60,0.00,ExternalEnvironment,DOE-2,ASHRAETARP,SunExposed,WindExposed,0.50,0.50,0.64,0.36,4
HeatTransfer Surface,A492058F47A24CFDB0FC_SRFP_0,Wall,,CTF - ConductionTransferFunction,INTERIOR WALL,0.500,0.465,,1.60,1.60,1.60,180.00,90.00,2.83,2.04,0.00,3450B9CAC0D14E639808_SRFP_0,Other/Same Surface Int Conv,ASHRAETARP,NoSun,NoWind,0.50,0.50,0.50,0.50,3
HeatTransfer Surface,A492058F47A24CFDB0FC_SRFP_1,Wall,,CTF - ConductionTransferFunction,INTERIOR WALL,0.500,0.465,,3.00,3.00,3.00,180.00,90.00,3.00,2.83,0.00,3450B9CAC0D14E639808_SRFP_1,Other/Same Surface Int Conv,ASHRAETARP,NoSun,NoWind,0.50,0.50,0.50,0.50,3
HeatTransfer Surface,A492058F47A24CFDB0FC_SRFP_2,Wall,,CTF - ConductionTransferFunction,INTERIOR WALL,0.500,0.465,,0.50,0.50,0.50,180.00,90.00,3.16,2.24,0.00,3450B9CAC0D14E639808_SRFP_2,Other/Same Surface Int Conv,ASHRAETARP,NoSun,NoWind,0.50,0.50,0.50,0.50,3
HeatTransfer Surface,A492058F47A24CFDB0FC_SRFP_3,Wall,,CTF - ConductionTransferFunction,INTERIOR WALL,0.500,0.465,,2.50,2.50,2.50,180.00,90.00,5.00,3.16,0.00,3450B9CAC0D14E639808_SRFP_3,Other/Same Surface Int Conv,ASHRAETARP,NoSun,NoWind,0.50,0.50,0.50,0.50,3
HeatTransfer Surface,A492058F47A24CFDB0FC_SRFP_4,Wall,,CTF - ConductionTransferFunction,INTERIOR WALL,0.500,0.465,,0.20,0.20,0.20,180.00,90.00,3.03,1.00,0.00,3450B9CAC0D14E639808_SRFP_4,Other/Same Surface Int Conv,ASHRAETARP,NoSun,NoWind,0.50,0.50,0.50,0.50,3
HeatTransfer Surface,A492058F47A24CFDB0FC_SRFP_5,Wall,,CTF - ConductionTransferFunction,INTERIOR WALL,0.500,0.465,,1.60,1.60,1.60,180.00,90.00,3.28,2.24,0.00,3450B9CAC0D14E639808_SRFP_5,Other/Same Surface Int Conv,ASHRAETARP,NoSun,NoWind,0.50,0.50,0.50,0.50,3
HeatTransfer Surface,A492058F47A24CFDB0FC_SRFP_6,Wall,,CTF - ConductionTransferFunction,INTERIOR WALL,0.500,0.465,,3.00,3.00,3.00,180.00,90.00,3.00,3.28,0.00,3450B9CAC0D14E639808_SRFP_6,Other/Same Surface Int Conv,ASHRAETARP,NoSun,NoWind,0.50,0.50,0.50,0.50,3
HeatTransfer Surface,A492058F47A24CFDB0FC_SRFP_7,Wall,,CTF - ConductionTransferFunction,INTERIOR WALL,0.500,0.465,,1.00,1.00,1.00,180.00,90.00,3.03,5.00,0.00,3450B9CAC0D14E639808_SRFP_7,Other/Same Surface Int Conv,ASHRAETARP,NoSun,NoWind,0.50,0.50,0.50,0.50,3
HeatTransfer Surface,1489C5E4864749108183,Wall,,CTF - ConductionTransferFunction,INTERIOR WALL,0.500,0.465,,13.40,15.00,13.40,90.00,90.00,5.00,3.00,0.00,9A94ACA56A16440990CD,Other/Same Surface Int Conv,ASHRAETARP,NoSun,NoWind,0.50,0.50,0.50,0.50,4
HeatTransfer Surface,1489C5E4864749108183_GLZ_0_F33F73C9CB4C44119EC3,Window,1489C5E4864749108183,Window5 Detailed Fenestration,INTERIOR WINDOW,N/A,5.787,No,1.60,1.60,1.60,90.00,90.00,1.00,1.60,0.00,9A94ACA56A16440990CD_GLZ_0_BEDFD86103A246C58282,Other/Same Surface Int Conv,ASHRAETARP,NoSun,NoWind,0.50,0.50,0.50,0.50,4
HeatTransfer Surface,629F7D9ECD6240458EB2,Wall,,CTF - ConductionTransferFunction,AIR WALL,13.100,4.424,,1.60,1.60,1.60,180.00,90.00,1.00,1.60,0.00,F54267983C3742E19DB3,Other/Same Surface Int Conv,ASHRAETARP,NoSun,NoWind,0.50,0.50,0.50,0.50,4
HeatTransfer Surface,607BDE968C67456E8C5E,Floor,,CTF - ConductionTransferFunction,EXTERIOR FLOOR,0.220,0.209,,25.00,25.00,25.00,90.00,180.00,5.00,5.00,0.00,Ground,N/A-Ground,ASHRAETARP,NoSun,NoWind,1.00,0.00,1.00,0.00,4
HeatTransfer Surface,FCBCC5A43A364B309038,Roof,,CTF - ConductionTransferFunction,INTERIOR CEILING,1.000,0.841,,25.00,25.00,25.00,180.00,0.00,5.00,5.00,0.00,10AE508A81264C718D07,Other/Same Surface Int Conv,ASHRAETARP,NoSun,NoWind,0.00,1.00,0.00,1.00,4
Zone Surfaces,ZONE4,16
HeatTransfer Surface,A9013CCDF7514C79B799,Wall,,CTF - ConductionTransferFunction,EXTERIOR WALL,0.220,0.213,,15.00,15.00,15.00,90.00,90.00,5.00,3.00,0.00,ExternalEnvironment,DOE-2,ASHRAETARP,SunExposed,WindExposed,0.50,0.50,0.50,0.50,4
HeatTransfer Surface,0BB252B337B243D1A9CA,Wall,,CTF - ConductionTransferFunction,EXTERIOR WALL,0.220,0.213,,10.20,15.00,10.20,0.00,90.00,5.00,3.00,0.00,ExternalEnvironment,DOE-2,ASHRAETARP,SunExposed,WindExposed,0.50,0.50,0.51,0.49,4
HeatTransfer Surface,0BB252B337B243D1A9CA_GLZ_0_F5CF2156590D48F8B885,Window,0BB252B337B243D1A9CA,Window5 Detailed Fenestration,EXTERIOR WINDOW,N/A,1.600,No,4.80,4.80,4.80,0.00,90.00,3.00,1.60,0.00,ExternalEnvironment,DOE-2,ASHRAETARP,SunExposed,WindExposed,0.50,0.50,0.64,0.36,4
HeatTransfer Surface,1B4A70146E884417A6C2_SRFP_0,Wall,,CTF - ConductionTransferFunction,INTERIOR WALL,0.500,0.465,,1.60,1.60,1.60,180.00,90.00,2.83,2.04,0.00,18827043BD1748228F9F_SRFP_0,Other/Same Surface Int Conv,ASHRAETARP,NoSun,NoWind,0.50,0.50,0.50,0.50,3
HeatTransfer Surface,1B4A70146E884417A6C2_SRFP_1,Wall,,CTF - ConductionTransferFunction,INTERIOR WALL,0.500,0.465,,3.00,3.00,3.00,180.00,90.00,3.00,2.83,0.00,18827043BD1748228F9F_SRFP_1,Other/Same Surface Int Conv,ASHRAETARP,NoSun,NoWind,0.50,0.50,0.50,0.50,3
HeatTransfer Surface,1B4A70146E884417A6C2_SRFP_2,Wall,,CTF - ConductionTransferFunction,INTERIOR WALL,0.500,0.465,,0.50,0.50,0.50,180.00,90.00,3.16,2.24,0.00,18827043BD1748228F9F_SRFP_2,Other/Same Surface Int Conv,ASHRAETARP,NoSun,NoWind,0.50,0.50,0.50,0.50,3
HeatTransfer Surface,1B4A70146E884417A6C2_SRFP_3,Wall,,CTF - ConductionTransferFunction,INTERIOR WALL,0.500,0.465,,2.50,2.50,2.50,180.00,90.00,5.00,3.16,0.00,18827043BD1748228F9F_SRFP_3,Other/Same Surface Int Conv,ASHRAETARP,NoSun,NoWind,0.50,0.50,0.50,0.50,3
HeatTransfer Surface,1B4A70146E884417A6C2_SRFP_4,Wall,,CTF - ConductionTransferFunction,INTERIOR WALL,0.500,0.465,,0.20,0.20,0.20,180.00,90.00,3.03,1.00,0.00,18827043BD1748228F9F_SRFP_4,Other/Same Surface Int Conv,ASHRAETARP,NoSun,NoWind,0.50,0.50,0.50,0.50,3
HeatTransfer Surface,1B4A70146E884417A6C2_SRFP_5,Wall,,CTF - ConductionTransferFunction,INTERIOR WALL,0.500,0.465,,1.60,1.60,1.60,180.00,90.00,3.28,2.24,0.00,18827043BD1748228F9F_SRFP_5,Other/Same Surface Int Conv,ASHRAETARP,NoSun,NoWind,0.50,0.50,0.50,0.50,3
HeatTransfer Surface,1B4A70146E884417A6C2_SRFP_6,Wall,,CTF - ConductionTransferFunction,INTERIOR WALL,0.500,0.465,,3.00,3.00,3.00,180.00,90.00,3.00,3.28,0.00,18827043BD1748228F9F_SRFP_6,Other/Same Surface Int Conv,ASHRAETARP,NoSun,NoWind,0.50,0.50,0.50,0.50,3
HeatTransfer Surface,1B4A70146E884417A6C2_SRFP_7,Wall,,CTF - ConductionTransferFunction,INTERIOR WALL,0.500,0.465,,1.00,1.00,1.00,180.00,90.00,3.03,5.00,0.00,18827043BD1748228F9F_SRFP_7,Other/Same Surface Int Conv,ASHRAETARP,NoSun,NoWind,0.50,0.50,0.50,0.50,3
HeatTransfer Surface,9A94ACA56A16440990CD,Wall,,CTF - ConductionTransferFunction,INTERIOR WALL,0.500,0.465,,13.40,15.00,13.40,270.00,90.00,5.00,3.00,0.00,1489C5E4864749108183,Other/Same Surface Int Conv,ASHRAETARP,NoSun,NoWind,0.50,0.50,0.50,0.50,4
HeatTransfer Surface,9A94ACA56A16440990CD_GLZ_0_BEDFD86103A246C58282,Window,9A94ACA56A16440990CD,Window5 Detailed Fenestration,INTERIOR WINDOW,N/A,5.787,No,1.60,1.60,1.60,270.00,90.00,1.60,1.00,0.00,1489C5E4864749108183_GLZ_0_F33F73C9CB4C44119EC3,Other/Same Surface Int Conv,ASHRAETARP,NoSun,NoWind,0.50,0.50,0.50,0.50,4
HeatTransfer Surface,E4458FF87EE04E219343,Wall,,CTF - ConductionTransferFunction,AIR WALL,13.100,4.424,,1.60,1.60,1.60,180.00,90.00,1.00,1.60,0.00,21EFBD8EB290413FBD96,Other/Same Surface Int Conv,ASHRAETARP,NoSun,NoWind,0.50,0.50,0.50,0.50,4
HeatTransfer Surface,92EBA5E7333F41208130,Floor,,CTF - ConductionTransferFunction,EXTERIOR FLOOR,0.220,0.209,,25.00,25.00,25.00,90.00,180.00,5.00,5.00,0.00,Ground,N/A-Ground,ASHRAETARP,NoSun,NoWind,1.00,0.00,1.00,0.00,4
HeatTransfer Surface,D4EE8901333D4106849A,Roof,,CTF - ConductionTransferFunction,INTERIOR CEILING,1.000,0.841,,25.00,25.00,25.00,180.00,0.00,5.00,5.00,0.00,91E9F8EB13224A229BEE,Other/Same Surface Int Conv,ASHRAETARP,NoSun,NoWind,0.00,1.00,0.00,1.00,4
! <Environment>,Environment Name,Environment Type, Start Date, End Date, Start DayOfWeek, Duration {#days}, Source:Start DayOfWeek,  Use Daylight Saving, Use Holidays, Apply Weekend Holiday Rule,  Use Rain Values, Use Snow Values
! <Environment:Special Days>, Special Day Name, Special Day Type, Source, Start Date, Duration {#days}
! <Environment:Daylight Saving>, Daylight Saving Indicator, Source, Start Date, End Date
! <Environment:WarmupDays>, NumberofWarmupDays
Environment,PARAMETRIC RUN,WeatherFileRunPeriod,01/01,12/31,Monday,365,Use RunPeriod Specified Day,Yes,Yes,No,Yes,Yes
Environment:Daylight Saving,No,
Environment:WarmupDays,  6
! <Warmup Convergence Information>,Zone Name,Environment Type/Name,Average Warmup Temperature Difference {deltaC},Std Dev Warmup Temperature Difference {deltaC},Max Temperature Pass/Fail Convergence,Min Temperature Pass/Fail Convergence,Average Warmup Load Difference {W},Std Dev Warmup Load Difference {W},Heating Load Pass/Fail Convergence,Cooling Load Pass/Fail Convergence
 Warmup Convergence Information,ZONE1,RunPeriod: PARAMETRIC RUN,9.4005882446E-002,0.5002154183,Pass,Pass,6.6610262429E-002,0.2010428369,Pass,Pass
 Warmup Convergence Information,ZONE2,RunPeriod: PARAMETRIC RUN,8.0589759247E-002,0.4255696311,Pass,Pass,5.3344396937E-002,0.1940262810,Pass,Pass
 Warmup Convergence Information,ZONE3,RunPeriod: PARAMETRIC RUN,8.7375620627E-002,0.4735558828,Pass,Pass,5.1890829972E-002,0.1862123527,Pass,Pass
 Warmup Convergence Information,ZONE4,RunPeriod: PARAMETRIC RUN,8.0509665582E-002,0.4252661815,Pass,Pass,5.3377307432E-002,0.1937407012,Pass,Pass
! <Program Control Information:Threads/Parallel Sims>, Threading Supported,Maximum Number of Threads, Env Set Threads (OMP_NUM_THREADS), EP Env Set Threads (EP_OMP_NUM_THREADS), IDF Set Threads, Number of Threads Used (Interior Radiant Exchange), Number Nominal Surfaces, Number Parallel Sims
Program Control:Threads/Parallel Sims, No,1, N/A, N/A, N/A, N/A, N/A, N/A
End of Data
