Program Version,EnergyPlus, Version 8.8.0-7c3bbe4830, YMD=2018.07.16 21:58
! <Version>, Version ID
 Version, 8.8.0
! <Timesteps per Hour>, #TimeSteps, Minutes per TimeStep {minutes}
 Timesteps per Hour,  6, 10
! <System Convergence Limits>, Minimum System TimeStep {minutes}, Max HVAC Iterations, Minimum Plant Iterations, Maximum Plant Iterations
 System Convergence Limits, 1, 20, 2, 8
! <Simulation Control>, Do Zone Sizing, Do System Sizing, Do Plant Sizing, Do Design Days, Do Weather Simulation, Do HVAC Sizing Simulation
 Simulation Control, No, No, No, No, Yes, No
! <Output Reporting Tolerances>, Tolerance for Time Heating Setpoint Not Met, Tolerance for Zone Cooling Setpoint Not Met Time
 Output Reporting Tolerances, 0.200, 0.200, 
! <Site:GroundTemperature:BuildingSurface>,Jan{C},Feb{C},Mar{C},Apr{C},May{C},Jun{C},Jul{C},Aug{C},Sep{C},Oct{C},Nov{C},Dec{C}
 Site:GroundTemperature:BuildingSurface,  18.00,  18.00,  18.00,  18.00,  18.00,  18.00,  18.00,  18.00,  18.00,  18.00,  18.00,  18.00
! <Site:GroundTemperature:Shallow>,Jan{C},Feb{C},Mar{C},Apr{C},May{C},Jun{C},Jul{C},Aug{C},Sep{C},Oct{C},Nov{C},Dec{C}
 Site:GroundTemperature:Shallow,  13.00,  13.00,  13.00,  13.00,  13.00,  13.00,  13.00,  13.00,  13.00,  13.00,  13.00,  13.00
! <Site:GroundTemperature:Deep>,Jan{C},Feb{C},Mar{C},Apr{C},May{C},Jun{C},Jul{C},Aug{C},Sep{C},Oct{C},Nov{C},Dec{C}
 Site:GroundTemperature:Deep,  16.00,  16.00,  16.00,  16.00,  16.00,  16.00,  16.00,  16.00,  16.00,  16.00,  16.00,  16.00
! <Site:GroundReflectance>,Jan{dimensionless},Feb{dimensionless},Mar{dimensionless},Apr{dimensionless},May{dimensionless},Jun{dimensionless},Jul{dimensionless},Aug{dimensionless},Sep{dimensionless},Oct{dimensionless},Nov{dimensionless},Dec{dimensionless}
 Site:GroundReflectance,  0.20,  0.20,  0.20,  0.20,  0.20,  0.20,  0.20,  0.20,  0.20,  0.20,  0.20,  0.20
! <Site:GroundReflectance:SnowModifier>, Normal, Daylighting {dimensionless}
 Site:GroundReflectance:SnowModifier,   1.000,   1.000
! <Site:GroundReflectance:Snow>,Jan{dimensionless},Feb{dimensionless},Mar{dimensionless},Apr{dimensionless},May{dimensionless},Jun{dimensionless},Jul{dimensionless},Aug{dimensionless},Sep{dimensionless},Oct{dimensionless},Nov{dimensionless},Dec{dimensionless}
 Site:GroundReflectance:Snow,  0.20,  0.20,  0.20,  0.20,  0.20,  0.20,  0.20,  0.20,  0.20,  0.20,  0.20,  0.20
! <Site:GroundReflectance:Snow:Daylighting>,Jan{dimensionless},Feb{dimensionless},Mar{dimensionless},Apr{dimensionless},May{dimensionless},Jun{dimensionless},Jul{dimensionless},Aug{dimensionless},Sep{dimensionless},Oct{dimensionless},Nov{dimensionless},Dec{dimensionless}
 Site:GroundReflectance:Snow:Daylighting,  0.20,  0.20,  0.20,  0.20,  0.20,  0.20,  0.20,  0.20,  0.20,  0.20,  0.20,  0.20
! <Environment:Weather Station>,Wind Sensor Height Above Ground {m},Wind Speed Profile Exponent {},Wind Speed Profile Boundary Layer Thickness {m},Air Temperature Sensor Height Above Ground {m},Wind Speed Modifier Coefficient-Internal,Temperature Modifier Coefficient-Internal
Environment:Weather Station,10.000,0.140,270.000,1.500,1.586,9.750E-003
! <Site:Location>, Location Name, Latitude {N+/S- Deg}, Longitude {E+/W- Deg},  Time Zone Number {GMT+/-}, Elevation {m},  Standard Pressure at Elevation {Pa}, Standard RhoAir at Elevation
Site:Location,CARDIFF GBR CIBSE_TRY05 WMO#=NA,51.48,-3.34,0.00,10.00,101205,1.2029
! <Building Information>, Building Name,North Axis {deg},Terrain,  Loads Convergence Tolerance Value,Temperature Convergence Tolerance Value,  Solar Distribution,Maximum Number of Warmup Days,Minimum Number of Warmup Days
 Building Information,IHOPETHISWORKS,0.000,City,4.00000E-002,0.40000,FullInteriorAndExteriorWithReflectionsFromExteriorSurfaces,25,6
! <Inside Convection Algorithm>, Algorithm {Simple | TARP | CeilingDiffuser | AdaptiveConvectionAlgorithm}
Inside Convection Algorithm,TARP
! <Outside Convection Algorithm>, Algorithm {SimpleCombined | TARP | MoWitt | DOE-2 | AdaptiveConvectionAlgorithm}
Outside Convection Algorithm,DOE-2
! <Sky Radiance Distribution>, Value {Anisotropic}
Sky Radiance Distribution,Anisotropic
! <Zone Air Solution Algorithm>, Value {ThirdOrderBackwardDifference | AnalyticalSolution | EulerMethod}
 Zone Air Solution Algorithm, ThirdOrderBackwardDifference
! <Zone Air Carbon Dioxide Balance Simulation>, Simulation {Yes/No}, Carbon Dioxide Concentration
 Zone Air Carbon Dioxide Balance Simulation, No,N/A
! <Zone Air Generic Contaminant Balance Simulation>, Simulation {Yes/No}, Generic Contaminant Concentration
 Zone Air Generic Contaminant Balance Simulation, No,N/A
! <Zone Air Mass Flow Balance Simulation>, Enforce Mass Balance, Adjust Zone Mixing, Adjust Zone Infiltration {AddInfiltration | AdjustInfiltration | None}, Infiltration Zones {MixingSourceZonesOnly | AllZones}
 Zone Air Mass Flow Balance Simulation, No,N/A,N/A,N/A
! <HVACSystemRootFindingAlgorithm>, Value {RegulaFalsi | Bisection | BisectionThenRegulaFalsi | RegulaFalsiThenBisection}
 HVACSystemRootFindingAlgorithm, RegulaFalsi
! <Environment:Site Atmospheric Variation>,Wind Speed Profile Exponent {},Wind Speed Profile Boundary Layer Thickness {m},Air Temperature Gradient Coefficient {K/m}
Environment:Site Atmospheric Variation,0.330,460.000,6.500000E-003
! <Surface Geometry>,Starting Corner,Vertex Input Direction,Coordinate System,Daylight Reference Point Coordinate System,Rectangular (Simple) Surface Coordinate System
 Surface Geometry,LowerLeftCorner,Counterclockwise,RelativeCoordinateSystem,RelativeCoordinateSystem,RelativeToZoneOrigin
! <ShadingProperty Reflectance>,Shading Surface Name,Shading Type,Diffuse Solar Reflectance, Diffuse Visible Reflectance,Surface Glazing Fraction,Surface Glazing Contruction
! <Surface Heat Transfer Algorithm>, Value {CTF - ConductionTransferFunction | EMPD - MoisturePenetrationDepthConductionTransferFunction | CondFD - ConductionFiniteDifference | HAMT - CombinedHeatAndMoistureFiniteElement} - Description,Inside Surface Max Temperature Limit{C}, Surface Convection Coefficient Lower Limit {W/m2-K}, Surface Convection Coefficient Upper Limit {W/m2-K}
Surface Heat Transfer Algorithm, CTF - ConductionTransferFunction,200,0.10,1000.0
! <Shading Summary>, Number of Fixed Detached Shades, Number of Building Detached Shades, Number of Attached Shades
 Shading Summary,0,0,0
! <Zone Summary>, Number of Zones, Number of Zone Surfaces, Number of SubSurfaces
 Zone Summary,4,76,13
! <Zone Information>,Zone Name,North Axis {deg},Origin X-Coordinate {m},Origin Y-Coordinate {m},Origin Z-Coordinate {m},Centroid X-Coordinate {m},Centroid Y-Coordinate {m},Centroid Z-Coordinate {m},Type,Zone Multiplier,Zone List Multiplier,Minimum X {m},Maximum X {m},Minimum Y {m},Maximum Y {m},Minimum Z {m},Maximum Z {m},Ceiling Height {m},Volume {m3},Zone Inside Convection Algorithm {Simple-Detailed-CeilingDiffuser-TrombeWall},Zone Outside Convection Algorithm {Simple-Detailed-Tarp-MoWitt-DOE-2-BLAST}, Floor Area {m2},Exterior Gross Wall Area {m2},Exterior Net Wall Area {m2},Exterior Window Area {m2}, Number of Surfaces, Number of SubSurfaces, Number of Shading SubSurfaces,  Part of Total Building Area
 Zone Information, ZONE1,0.0,0.00,0.00,0.00,4.61,4.61,3.83,1,1,1,0.00,10.00,0.00,10.00,0.00,6.00,3.75,375.00,TARP,DOE-2,100.00,150.00,126.00,28.00,21,7,0,Yes
 Zone Information, ZONE2,0.0,0.00,0.00,0.00,7.50,2.50,1.50,1,1,1,5.00,10.00,0.00,5.00,0.00,3.00,3.00,75.00,TARP,DOE-2,25.00,30.00,25.20,4.80,14,2,0,Yes
 Zone Information, ZONE3,0.0,0.00,0.00,0.00,2.50,7.50,1.50,1,1,1,0.00,5.00,5.00,10.00,0.00,3.00,3.00,75.00,TARP,DOE-2,25.00,30.00,25.20,4.80,14,2,0,Yes
 Zone Information, ZONE4,0.0,0.00,0.00,0.00,7.50,7.50,1.50,1,1,1,5.00,10.00,5.00,10.00,0.00,3.00,3.00,75.00,TARP,DOE-2,25.00,30.00,25.20,4.80,14,2,0,Yes
! <Zone Internal Gains Nominal>,Zone Name, Floor Area {m2},# Occupants,Area per Occupant {m2/person},Occupant per Area {person/m2},Interior Lighting {W/m2},Electric Load {W/m2},Gas Load {W/m2},Other Load {W/m2},Hot Water Eq {W/m2},Steam Equipment {W/m2},Sum Loads per Area {W/m2},Outdoor Controlled Baseboard Heat
 Zone Internal Gains Nominal, ZONE1,100.00,50.0,2.000,0.500,6.000,12.000,0.000,0.000,0.000,0.000,18.000,No
 Zone Internal Gains Nominal, ZONE2,25.00,12.5,2.000,0.500,6.000,12.000,0.000,0.000,0.000,0.000,18.000,No
 Zone Internal Gains Nominal, ZONE3,25.00,12.5,2.000,0.500,6.000,12.000,0.000,0.000,0.000,0.000,18.000,No
 Zone Internal Gains Nominal, ZONE4,25.00,12.5,2.000,0.500,6.000,12.000,0.000,0.000,0.000,0.000,18.000,No
! <People Internal Gains Nominal>,Name,Schedule Name,Zone Name,Zone Floor Area {m2},# Zone Occupants,Number of People {},People/Floor Area {person/m2},Floor Area per person {m2/person},Fraction Radiant,Fraction Convected,Sensible Fraction Calculation,Activity level,ASHRAE 55 Warnings,Carbon Dioxide Generation Rate,Nominal Minimum Number of People,Nominal Maximum Number of People
 People Internal Gains Nominal, ZONE1 PEOPLEGAIN,OCCUPANTGAINYEAR,ZONE1,100.00,50.0,50.0,0.500,2.000,0.300,0.700,0.577,OCCUPANTACTIVITYLEVELYEAR,No,3.8200E-008,0,50
 People Internal Gains Nominal, ZONE2 PEOPLEGAIN,OCCUPANTGAINYEAR,ZONE2,25.00,12.5,12.5,0.500,2.000,0.300,0.700,0.577,OCCUPANTACTIVITYLEVELYEAR,No,3.8200E-008,0,13
 People Internal Gains Nominal, ZONE3 PEOPLEGAIN,OCCUPANTGAINYEAR,ZONE3,25.00,12.5,12.5,0.500,2.000,0.300,0.700,0.577,OCCUPANTACTIVITYLEVELYEAR,No,3.8200E-008,0,13
 People Internal Gains Nominal, ZONE4 PEOPLEGAIN,OCCUPANTGAINYEAR,ZONE4,25.00,12.5,12.5,0.500,2.000,0.300,0.700,0.577,OCCUPANTACTIVITYLEVELYEAR,No,3.8200E-008,0,13
! <Lights Internal Gains Nominal>,Name,Schedule Name,Zone Name,Zone Floor Area {m2},# Zone Occupants,Lighting Level {W},Lights/Floor Area {W/m2},Lights per person {W/person},Fraction Return Air,Fraction Radiant,Fraction Short Wave,Fraction Convected,Fraction Replaceable,End-Use Category,Nominal Minimum Lighting Level {W},Nominal Maximum Lighting Level {W}
 Lights Internal Gains Nominal, ZONE1 LIGHTINGGAIN,LIGHTINGGAINYEAR,ZONE1,100.00,50.0,600.000,6.000,12.000,0.000,0.500,0.500,0.000,1.000,General,0.000,600.000
 Lights Internal Gains Nominal, ZONE2 LIGHTINGGAIN,LIGHTINGGAINYEAR,ZONE2,25.00,12.5,150.000,6.000,12.000,0.000,0.500,0.500,0.000,1.000,General,0.000,150.000
 Lights Internal Gains Nominal, ZONE3 LIGHTINGGAIN,LIGHTINGGAINYEAR,ZONE3,25.00,12.5,150.000,6.000,12.000,0.000,0.500,0.500,0.000,1.000,General,0.000,150.000
 Lights Internal Gains Nominal, ZONE4 LIGHTINGGAIN,LIGHTINGGAINYEAR,ZONE4,25.00,12.5,150.000,6.000,12.000,0.000,0.500,0.500,0.000,1.000,General,0.000,150.000
! <ElectricEquipment Internal Gains Nominal>,Name,Schedule Name,Zone Name,Zone Floor Area {m2},# Zone Occupants,Equipment Level {W},Equipment/Floor Area {W/m2},Equipment per person {W/person},Fraction Latent,Fraction Radiant,Fraction Lost,Fraction Convected,End-Use SubCategory,Nominal Minimum Equipment Level {W},Nominal Maximum Equipment Level {W}
 ElectricEquipment Internal Gains Nominal, ZONE1 EQUIPMENTGAIN,EQUIPMENTGAINYEAR,ZONE1,100.00,50.0,1200.000,12.000,24.000,0.850,0.150,0.000,0.000,General,0.000,1200.000
 ElectricEquipment Internal Gains Nominal, ZONE2 EQUIPMENTGAIN,EQUIPMENTGAINYEAR,ZONE2,25.00,12.5,300.000,12.000,24.000,0.850,0.150,0.000,0.000,General,0.000,300.000
 ElectricEquipment Internal Gains Nominal, ZONE3 EQUIPMENTGAIN,EQUIPMENTGAINYEAR,ZONE3,25.00,12.5,300.000,12.000,24.000,0.850,0.150,0.000,0.000,General,0.000,300.000
 ElectricEquipment Internal Gains Nominal, ZONE4 EQUIPMENTGAIN,EQUIPMENTGAINYEAR,ZONE4,25.00,12.5,300.000,12.000,24.000,0.850,0.150,0.000,0.000,General,0.000,300.000
! <Construction CTF>,Construction Name,Index,#Layers,#CTFs,Time Step {hours},ThermalConductance {w/m2-K},OuterThermalAbsorptance,InnerThermalAbsorptance,OuterSolarAbsorptance,InnerSolarAbsorptance,Roughness
! <Material CTF Summary>,Material Name,Thickness {m},Conductivity {w/m-K},Density {kg/m3},Specific Heat {J/kg-K},ThermalResistance {m2-K/w}
! <Material:Air>,Material Name,ThermalResistance {m2-K/w}
! <CTF>,Time,Outside,Cross,Inside,Flux (except final one)
 Construction CTF,INTERIOR WALL,   1,   3,   6,   0.167,      2.807    ,   0.100,   0.100,   0.400,   0.400,MediumSmooth
 Material CTF Summary,INTERIOR WALL OUTSIDE MATERIAL,  0.0190,         0.160,    800.000,     1090.000,  0.1187    
 Material CTF Summary,INTERIOR WALL MIDDLE MATERIAL,  0.0190,         0.160,     50.000,     1030.000,  0.1187    
 Material CTF Summary,INTERIOR WALL OUTSIDE MATERIAL,  0.0190,         0.160,    800.000,     1090.000,  0.1187    
 CTF,   6,      0.59665905E-12,      0.19988188E-12,      0.59666013E-12,     -0.66401493E-15
 CTF,   5,     -0.44499855E-06,      0.61706302E-07,     -0.44499855E-06,      0.11689015E-11
 CTF,   4,      0.12400418E-02,      0.25726718E-03,      0.12400418E-02,     -0.49361801E-06
 CTF,   3,     -0.43123902    ,      0.43971224E-01,     -0.43123902    ,      0.54243933E-03
 CTF,   2,       6.6700339    ,      0.49457956    ,       6.6700339    ,     -0.10964049    
 CTF,   1,      -21.578919    ,      0.53419366    ,      -21.578919    ,      0.71569727    
 CTF,   0,       16.443169    ,      0.31282506E-01,       16.443169    
 Construction CTF,EXTERIOR WALL,   2,   3,  10,   0.167,      1.084    ,   0.100,   0.100,   0.700,   0.400,MediumSmooth
 Material CTF Summary,EXTERIOR WALL OUTSIDE MATERIAL,  0.1000,         1.130,   1800.000,     1000.000,  0.8850E-01
 Material CTF Summary,EXTERIOR WALL MIDDLE MATERIAL,  0.0258,         0.036,     50.000,     1030.000,  0.7155    
 Material CTF Summary,EXTERIOR WALL INSIDE MATERIAL,  0.0190,         0.160,    800.000,     1090.000,  0.1187    
 CTF,  10,     -0.23092384E-14,      0.12181948E-13,      0.45950429E-12,      0.84850687E-16
 CTF,   9,     -0.73871076E-10,      0.53663458E-13,     -0.16392638E-08,      0.51438537E-12
 CTF,   8,      0.12264822E-06,      0.21911079E-09,      0.95371963E-06,     -0.86278237E-09
 CTF,   7,     -0.46684954E-04,      0.14817677E-06,     -0.18559557E-03,      0.33916102E-06
 CTF,   6,      0.66283671E-02,      0.19360410E-04,      0.13461281E-01,     -0.50816256E-04
 CTF,   5,     -0.36263206    ,      0.60172514E-03,     -0.35557879    ,      0.30498706E-02
 CTF,   4,       6.5448850    ,      0.48831401E-02,       3.8844348    ,     -0.64793724E-01
 CTF,   3,      -40.484629    ,      0.10538385E-01,      -19.305138    ,      0.48995630    
 CTF,   2,       105.48965    ,      0.54482449E-02,       43.926791    ,      -1.5397373    
 CTF,   1,      -119.70073    ,      0.45173205E-03,      -44.555032    ,       2.0913273    
 CTF,   0,       48.528818    ,      0.10094181E-05,       16.413191    
 Construction CTF,INTERIOR FLOOR,   3,   3,   9,   0.167,      1.515    ,   0.900,   0.900,   0.300,   0.500,MediumSmooth
 Material CTF Summary,INTERIOR FLOOR/CEILING CEILING MATERIAL,  0.0191,         0.060,    368.000,      590.000,  0.3183    
 Material:Air,INTERIOR FLOOR/CEILING MIDDLE MATERIAL,  0.1500    
 Material CTF Summary,INTERIOR FLOOR/CEILING FLOOR MATERIAL,  0.1016,         0.530,   1280.000,      840.000,  0.1917    
 CTF,   9,     -0.35904404E-11,      0.59297810E-15,     -0.10712783E-14,     -0.18879158E-16
 CTF,   8,      0.48118398E-06,      0.44758322E-12,      0.10040435E-08,     -0.19613027E-10
 CTF,   7,     -0.77647225E-04,      0.76139413E-08,     -0.30718380E-04,      0.60014004E-06
 CTF,   6,      0.43401625E-02,      0.40728305E-05,      0.36683249E-02,     -0.74298645E-04
 CTF,   5,     -0.10453189    ,      0.27676385E-03,     -0.14076380    ,      0.30224653E-02
 CTF,   4,       1.1140826    ,      0.39640219E-02,       2.1904223    ,     -0.51158879E-01
 CTF,   3,      -5.3680776    ,      0.14008479E-01,      -15.012449    ,      0.39279842    
 CTF,   2,       12.243479    ,      0.11829131E-01,       44.640559    ,      -1.3578025    
 CTF,   1,      -12.938165    ,      0.17754670E-02,      -55.533077    ,       1.9921783    
 CTF,   0,       5.0808206    ,      0.13237046E-04,       23.883542    
 Construction CTF,EXTERIOR FLOOR,   4,   2,  10,   0.167,     0.5563    ,   0.900,   0.900,   0.700,   0.700,MediumRough
 Material CTF Summary,EXTERIOR FLOOR OUTSIDE MATERIAL,  0.0508,         0.030,     43.000,     1210.000,   1.693    
 Material CTF Summary,EXTERIOR FLOOR INSIDE MATERIAL,  0.2032,         1.950,   2240.000,      900.000,  0.1042    
 CTF,  10,      0.23808708E-10,      0.19900769E-14,      0.28584045E-12,     -0.40622520E-14
 CTF,   9,     -0.82903898E-06,      0.45037678E-13,     -0.20661016E-06,      0.29462360E-08
 CTF,   8,      0.35660301E-03,      0.25244069E-09,      0.95662959E-03,     -0.13643327E-04
 CTF,   7,     -0.11265829E-01,      0.91752358E-07,     -0.86605806E-01,      0.12438554E-02
 CTF,   6,      0.14364361    ,      0.50514870E-05,       1.6751937    ,     -0.24672138E-01
 CTF,   5,     -0.94528551    ,      0.66576082E-04,      -14.314405    ,      0.21798586    
 CTF,   4,       3.5088560    ,      0.25620873E-03,       64.793430    ,      -1.0283945    
 CTF,   3,      -7.5730183    ,      0.29982817E-03,      -164.58870    ,       2.7453106    
 CTF,   2,       9.3772855    ,      0.95427985E-04,       232.96189    ,      -4.1165986    
 CTF,   1,      -6.1574957    ,      0.55696743E-05,      -170.08001    ,       3.2038286    
 CTF,   0,       1.6576533    ,      0.12641049E-07,       49.638978    
 Construction CTF,INTERIOR CEILING,   5,   3,   9,   0.167,      1.515    ,   0.900,   0.900,   0.500,   0.300,MediumRough
 Material CTF Summary,INTERIOR FLOOR/CEILING FLOOR MATERIAL,  0.1016,         0.530,   1280.000,      840.000,  0.1917    
 Material:Air,INTERIOR FLOOR/CEILING MIDDLE MATERIAL,  0.1500    
 Material CTF Summary,INTERIOR FLOOR/CEILING CEILING MATERIAL,  0.0191,         0.060,    368.000,      590.000,  0.3183    
 CTF,   9,     -0.10712783E-14,      0.59297810E-15,     -0.35904404E-11,     -0.18879158E-16
 CTF,   8,      0.10040435E-08,      0.44758322E-12,      0.48118398E-06,     -0.19613027E-10
 CTF,   7,     -0.30718380E-04,      0.76139413E-08,     -0.77647225E-04,      0.60014004E-06
 CTF,   6,      0.36683249E-02,      0.40728305E-05,      0.43401625E-02,     -0.74298645E-04
 CTF,   5,     -0.14076380    ,      0.27676385E-03,     -0.10453189    ,      0.30224653E-02
 CTF,   4,       2.1904223    ,      0.39640219E-02,       1.1140826    ,     -0.51158879E-01
 CTF,   3,      -15.012449    ,      0.14008479E-01,      -5.3680776    ,      0.39279842    
 CTF,   2,       44.640559    ,      0.11829131E-01,       12.243479    ,      -1.3578025    
 CTF,   1,      -55.533077    ,      0.17754670E-02,      -12.938165    ,       1.9921783    
 CTF,   0,       23.883542    ,      0.13237046E-04,       5.0808206    
 Construction CTF,EXTERIOR ROOF,   6,   3,  12,   0.333,     0.1737    ,   0.900,   0.900,   0.500,   0.300,MediumRough
 Material CTF Summary,EXTERIOR ROOF OUTSIDE MATERIAL,  0.1000,         0.500,   1800.000,     1000.000,  0.2000    
 Material CTF Summary,EXTERIOR ROOF MIDDLE MATERIAL,  0.2000,         0.036,     50.000,     1030.000,   5.556    
 Material CTF Summary,EXTERIOR ROOF INSIDE MATERIAL,  0.0010,         0.500,    250.000,     1000.000,  0.2000E-02
 CTF,  12,      0.45181270E-15,      0.12267917E-13,      0.63144483E-09,      0.28022575E-17
 CTF,  11,     -0.38159363E-07,      0.11861593E-13,     -0.13684350E-06,      0.68629947E-09
 CTF,  10,      0.78204607E-05,      0.21525646E-12,      0.10232442E-04,     -0.14666257E-06
 CTF,   9,     -0.53715968E-03,      0.17721693E-09,     -0.35872850E-03,      0.10684488E-04
 CTF,   8,      0.16852507E-01,      0.25315423E-07,      0.68751254E-02,     -0.35875502E-03
 CTF,   7,     -0.28151725    ,      0.10011007E-05,     -0.77871813E-01,      0.64623487E-02
 CTF,   6,       2.6951230    ,      0.13334101E-04,      0.54359077    ,     -0.67220854E-01
 CTF,   5,      -15.320024    ,      0.65194687E-04,      -2.3914628    ,      0.41859992    
 CTF,   4,       52.557548    ,      0.11810373E-03,       6.6725484    ,      -1.5837372    
 CTF,   3,      -108.46738    ,      0.74455248E-04,      -11.673905    ,       3.6185506    
 CTF,   2,       130.51698    ,      0.13405780E-04,       12.319150    ,      -4.8269684    
 CTF,   1,      -83.840341    ,      0.50875538E-06,      -7.1287053    ,       3.4330151    
 CTF,   0,       22.123580    ,      0.19400213E-07,       1.7304156    
 Construction CTF,AIR WALL,   7,   1,   2,   0.167,      13.10    ,   0.001,   0.001,   0.001,   0.001,Smooth
 Material CTF Summary,AIR WALL MATERIAL,  0.0020,         0.026,      1.225,     1000.000,  0.7634E-01
 CTF,   2,      0.28731289E-15,      0.16983614E-15,      0.28731289E-15,       0.0000000    
 CTF,   1,     -0.12854938E-02,      0.75617283E-03,     -0.12854938E-02,      0.86365181E-12
 CTF,   0,       13.101285    ,       13.099244    ,       13.101285    
! <WindowConstruction>,Construction Name,Index,#Layers,Roughness,Conductance {W/m2-K},SHGC,Solar Transmittance at Normal Incidence,Visible Transmittance at Normal Incidence
! <WindowMaterial:Glazing>, Material Name, Optical Data Type, Spectral Data Set Name, Thickness {m}, Solar Transmittance,Front Solar Reflectance, Back Solar Reflectance, Visible Transmittance, Front Visible Reflectance,Back Visible Reflectance,Infrared Transmittance, Front Thermal Emissivity, Back Thermal Emissivity,Conductivity {W/m-K},Dirt Factor,Solar Diffusing
 WindowConstruction,EXTERIOR WINDOW,8,1,VerySmooth,1.600,0.599,0.525,0.651
 WindowMaterial:Glazing,EXTERIOR WINDOW MATERIAL,SpectralAverage,,4.32833E-002,0.52429,0.30207,0.30207,0.65000,0.13254,0.15003,0.00000,0.84000,0.84000,9.61247E-002,1.00000,No
 WindowConstruction,INTERIOR WINDOW,9,1,VerySmooth,5.787,0.950,0.934,0.901
 WindowMaterial:Glazing,INTERIOR WINDOW MATERIAL,SpectralAverage,,2.00000E-003,0.93379,7.65634E-003,7.65634E-003,0.90000,9.90000E-002,9.90000E-002,0.00000,0.84000,0.84000,0.31299,1.00000,No
! <Shadowing/Sun Position Calculations Annual Simulations>, Calculation Method, Value {days}, Allowable Number Figures in Shadow Overlap {}, Polygon Clipping Algorithm, Sky Diffuse Modeling Algorithm
Shadowing/Sun Position Calculations Annual Simulations,AverageOverDaysInFrequency,20,15000,SutherlandHodgman,SimpleSkyDiffuseModeling,InternalCalculation,Yes
! <Surface Convection Parameters>, Surface Name, Outside Model Assignment, Outside Area [m2], Outside Perimeter [m], Outside Height [m], Inside Model Assignment, Inside Height [cm], Inside Perimeter Envelope [m], Inside Hydraulic Diameter [m], Window Wall Ratio [ ], Window Location [ ], Near Radiant [Yes/No], Has Active HVAC [Yes/No]
Surface Convection Parameters,466564015B2F43199C1B,0,60.00,32.00,6.00,0,3.75,50.00,10.00,0.19,3,No,No
Surface Convection Parameters,466564015B2F43199C1B_GLZ_0_F3AAB6FB8BD3451FBA7D,0,60.00,32.00,6.00,0,3.75,50.00,10.00,0.19,2,No,No
Surface Convection Parameters,AA69F423B82B48AAAA7E,0,60.00,32.00,6.00,0,3.75,50.00,10.00,0.19,3,No,No
Surface Convection Parameters,AA69F423B82B48AAAA7E_GLZ_0_706693F7F3F64B68969E,0,60.00,32.00,6.00,0,3.75,50.00,10.00,0.19,1,No,No
Surface Convection Parameters,FD8A070E4BE54D88AE3B,0,60.00,32.00,6.00,0,3.75,50.00,10.00,0.19,3,No,No
Surface Convection Parameters,FD8A070E4BE54D88AE3B_GLZ_0_B285641B64A742589E03,0,60.00,32.00,6.00,0,3.75,50.00,10.00,0.19,2,No,No
Surface Convection Parameters,D9E98E2F98CA44578C65,0,60.00,32.00,6.00,0,3.75,50.00,10.00,0.19,3,No,No
Surface Convection Parameters,AF6581C9E0E3475DA994,0,60.00,40.28,6.00,0,3.75,50.00,10.00,0.19,3,No,No
Surface Convection Parameters,AF6581C9E0E3475DA994_GLZ_0_A0DF08794DAE4C1B8D9A,0,60.00,40.28,6.00,0,3.75,50.00,10.00,0.19,2,No,No
Surface Convection Parameters,3675D61B3AAB405AA64E,0,60.00,40.28,6.00,0,3.75,50.00,10.00,0.19,3,No,No
Surface Convection Parameters,3675D61B3AAB405AA64E_GLZ_0_C015151E9B4341638ED8,0,60.00,40.28,6.00,0,3.75,50.00,10.00,0.19,2,No,No
Surface Convection Parameters,3450B9CAC0D14E639808_SRFP_0,0,0.00,0.00,0.00,0,3.75,50.00,10.00,0.19,0,No,No
Surface Convection Parameters,3450B9CAC0D14E639808_SRFP_1,0,0.00,0.00,0.00,0,3.75,50.00,10.00,0.19,0,No,No
Surface Convection Parameters,3450B9CAC0D14E639808_SRFP_2,0,0.00,0.00,0.00,0,3.75,50.00,10.00,0.19,0,No,No
Surface Convection Parameters,3450B9CAC0D14E639808_SRFP_3,0,0.00,0.00,0.00,0,3.75,50.00,10.00,0.19,0,No,No
Surface Convection Parameters,3450B9CAC0D14E639808_SRFP_4,0,0.00,0.00,0.00,0,3.75,50.00,10.00,0.19,0,No,No
Surface Convection Parameters,3450B9CAC0D14E639808_SRFP_5,0,0.00,0.00,0.00,0,3.75,50.00,10.00,0.19,0,No,No
Surface Convection Parameters,3450B9CAC0D14E639808_SRFP_6,0,0.00,0.00,0.00,0,3.75,50.00,10.00,0.19,0,No,No
Surface Convection Parameters,3450B9CAC0D14E639808_SRFP_7,0,0.00,0.00,0.00,0,3.75,50.00,10.00,0.19,0,No,No
Surface Convection Parameters,749EC30EECD34DC4A25C,0,0.00,0.00,0.00,0,3.75,50.00,10.00,0.19,0,No,No
Surface Convection Parameters,749EC30EECD34DC4A25C_GLZ_0_7C286FED11CF4D82B23B,0,0.00,0.00,0.00,0,3.75,50.00,10.00,0.19,0,No,No
Surface Convection Parameters,F54267983C3742E19DB3,0,0.00,0.00,0.00,0,3.75,50.00,10.00,0.19,0,No,No
Surface Convection Parameters,10AE508A81264C718D07,0,0.00,0.00,0.00,0,3.75,50.00,10.00,0.19,0,No,No
Surface Convection Parameters,91E9F8EB13224A229BEE,0,0.00,0.00,0.00,0,3.75,50.00,10.00,0.19,0,No,No
Surface Convection Parameters,2A66A42AD58A403783AA,0,0.00,0.00,0.00,0,3.75,50.00,10.00,0.19,0,No,No
Surface Convection Parameters,134068DDAD364F55B5A4,0,0.00,0.00,0.00,0,3.75,50.00,10.00,0.19,0,No,No
Surface Convection Parameters,15D536BB1111463BB433,0,100.00,40.00,0.00,0,3.75,50.00,10.00,0.19,0,No,No
Surface Convection Parameters,15D536BB1111463BB433_GLZ_0_3B1B787BEBAE42D6974C,0,100.00,40.00,0.00,0,3.75,50.00,10.00,0.19,2,No,No
Surface Convection Parameters,368CA5EB2212437BAC65,0,60.00,32.00,6.00,0,3.00,10.00,5.00,0.16,4,No,No
Surface Convection Parameters,E9DEF6BFFD0D4E24982D,0,60.00,40.28,6.00,0,3.00,10.00,5.00,0.16,3,No,No
Surface Convection Parameters,E9DEF6BFFD0D4E24982D_GLZ_0_FACD16C8C8724A7C9FE8,0,60.00,40.28,6.00,0,3.00,10.00,5.00,0.16,2,No,No
Surface Convection Parameters,18827043BD1748228F9F_SRFP_0,0,0.00,0.00,0.00,0,3.00,10.00,5.00,0.16,0,No,No
Surface Convection Parameters,18827043BD1748228F9F_SRFP_1,0,0.00,0.00,0.00,0,3.00,10.00,5.00,0.16,0,No,No
Surface Convection Parameters,18827043BD1748228F9F_SRFP_2,0,0.00,0.00,0.00,0,3.00,10.00,5.00,0.16,0,No,No
Surface Convection Parameters,18827043BD1748228F9F_SRFP_3,0,0.00,0.00,0.00,0,3.00,10.00,5.00,0.16,0,No,No
Surface Convection Parameters,18827043BD1748228F9F_SRFP_4,0,0.00,0.00,0.00,0,3.00,10.00,5.00,0.16,0,No,No
Surface Convection Parameters,18827043BD1748228F9F_SRFP_5,0,0.00,0.00,0.00,0,3.00,10.00,5.00,0.16,0,No,No
Surface Convection Parameters,18827043BD1748228F9F_SRFP_6,0,0.00,0.00,0.00,0,3.00,10.00,5.00,0.16,0,No,No
Surface Convection Parameters,18827043BD1748228F9F_SRFP_7,0,0.00,0.00,0.00,0,3.00,10.00,5.00,0.16,0,No,No
Surface Convection Parameters,1940A526EB2349FCAC1E,0,0.00,0.00,0.00,0,3.00,10.00,5.00,0.16,0,No,No
Surface Convection Parameters,1940A526EB2349FCAC1E_GLZ_0_5B10F896F7BD4131A002,0,0.00,0.00,0.00,0,3.00,10.00,5.00,0.16,0,No,No
Surface Convection Parameters,21EFBD8EB290413FBD96,0,0.00,0.00,0.00,0,3.00,10.00,5.00,0.16,0,No,No
Surface Convection Parameters,6EF94013FE2746C399E9,0,0.00,0.00,0.00,0,3.00,10.00,5.00,0.16,0,No,No
Surface Convection Parameters,47C50FED2A7A44E3B20B,0,0.00,0.00,0.00,0,3.00,10.00,5.00,0.16,0,No,No
Surface Convection Parameters,65EDE32B890F4F1F9280,0,60.00,40.28,6.00,0,3.00,10.00,5.00,0.16,4,No,No
Surface Convection Parameters,E792B52EA48241D382FB,0,60.00,32.00,6.00,0,3.00,10.00,5.00,0.16,3,No,No
Surface Convection Parameters,E792B52EA48241D382FB_GLZ_0_1798305B2A5941A4899A,0,60.00,32.00,6.00,0,3.00,10.00,5.00,0.16,2,No,No
Surface Convection Parameters,A492058F47A24CFDB0FC_SRFP_0,0,0.00,0.00,0.00,0,3.00,10.00,5.00,0.16,0,No,No
Surface Convection Parameters,A492058F47A24CFDB0FC_SRFP_1,0,0.00,0.00,0.00,0,3.00,10.00,5.00,0.16,0,No,No
Surface Convection Parameters,A492058F47A24CFDB0FC_SRFP_2,0,0.00,0.00,0.00,0,3.00,10.00,5.00,0.16,0,No,No
Surface Convection Parameters,A492058F47A24CFDB0FC_SRFP_3,0,0.00,0.00,0.00,0,3.00,10.00,5.00,0.16,0,No,No
Surface Convection Parameters,A492058F47A24CFDB0FC_SRFP_4,0,0.00,0.00,0.00,0,3.00,10.00,5.00,0.16,0,No,No
Surface Convection Parameters,A492058F47A24CFDB0FC_SRFP_5,0,0.00,0.00,0.00,0,3.00,10.00,5.00,0.16,0,No,No
Surface Convection Parameters,A492058F47A24CFDB0FC_SRFP_6,0,0.00,0.00,0.00,0,3.00,10.00,5.00,0.16,0,No,No
Surface Convection Parameters,A492058F47A24CFDB0FC_SRFP_7,0,0.00,0.00,0.00,0,3.00,10.00,5.00,0.16,0,No,No
Surface Convection Parameters,1489C5E4864749108183,0,0.00,0.00,0.00,0,3.00,10.00,5.00,0.16,0,No,No
Surface Convection Parameters,1489C5E4864749108183_GLZ_0_F33F73C9CB4C44119EC3,0,0.00,0.00,0.00,0,3.00,10.00,5.00,0.16,0,No,No
Surface Convection Parameters,629F7D9ECD6240458EB2,0,0.00,0.00,0.00,0,3.00,10.00,5.00,0.16,0,No,No
Surface Convection Parameters,607BDE968C67456E8C5E,0,0.00,0.00,0.00,0,3.00,10.00,5.00,0.16,0,No,No
Surface Convection Parameters,FCBCC5A43A364B309038,0,0.00,0.00,0.00,0,3.00,10.00,5.00,0.16,0,No,No
Surface Convection Parameters,A9013CCDF7514C79B799,0,60.00,40.28,6.00,0,3.00,10.00,5.00,0.16,4,No,No
Surface Convection Parameters,0BB252B337B243D1A9CA,0,60.00,40.28,6.00,0,3.00,10.00,5.00,0.16,3,No,No
Surface Convection Parameters,0BB252B337B243D1A9CA_GLZ_0_F5CF2156590D48F8B885,0,60.00,40.28,6.00,0,3.00,10.00,5.00,0.16,2,No,No
Surface Convection Parameters,1B4A70146E884417A6C2_SRFP_0,0,0.00,0.00,0.00,0,3.00,10.00,5.00,0.16,0,No,No
Surface Convection Parameters,1B4A70146E884417A6C2_SRFP_1,0,0.00,0.00,0.00,0,3.00,10.00,5.00,0.16,0,No,No
Surface Convection Parameters,1B4A70146E884417A6C2_SRFP_2,0,0.00,0.00,0.00,0,3.00,10.00,5.00,0.16,0,No,No
Surface Convection Parameters,1B4A70146E884417A6C2_SRFP_3,0,0.00,0.00,0.00,0,3.00,10.00,5.00,0.16,0,No,No
Surface Convection Parameters,1B4A70146E884417A6C2_SRFP_4,0,0.00,0.00,0.00,0,3.00,10.00,5.00,0.16,0,No,No
Surface Convection Parameters,1B4A70146E884417A6C2_SRFP_5,0,0.00,0.00,0.00,0,3.00,10.00,5.00,0.16,0,No,No
Surface Convection Parameters,1B4A70146E884417A6C2_SRFP_6,0,0.00,0.00,0.00,0,3.00,10.00,5.00,0.16,0,No,No
Surface Convection Parameters,1B4A70146E884417A6C2_SRFP_7,0,0.00,0.00,0.00,0,3.00,10.00,5.00,0.16,0,No,No
Surface Convection Parameters,9A94ACA56A16440990CD,0,0.00,0.00,0.00,0,3.00,10.00,5.00,0.16,0,No,No
Surface Convection Parameters,9A94ACA56A16440990CD_GLZ_0_BEDFD86103A246C58282,0,0.00,0.00,0.00,0,3.00,10.00,5.00,0.16,0,No,No
Surface Convection Parameters,E4458FF87EE04E219343,0,0.00,0.00,0.00,0,3.00,10.00,5.00,0.16,0,No,No
Surface Convection Parameters,92EBA5E7333F41208130,0,0.00,0.00,0.00,0,3.00,10.00,5.00,0.16,0,No,No
Surface Convection Parameters,D4EE8901333D4106849A,0,0.00,0.00,0.00,0,3.00,10.00,5.00,0.16,0,No,No
! <ZoneVentilation Airflow Stats Nominal>,Name,Schedule Name,Zone Name, Zone Floor Area {m2}, # Zone Occupants,Design Volume Flow Rate {m3/s},Volume Flow Rate/Floor Area {m3/s/m2},Volume Flow Rate/person Area {m3/s/person},ACH - Air Changes per Hour,Fan Type {Exhaust;Intake;Natural},Fan Pressure Rise {Pa},Fan Efficiency {},Equation A - Constant Term Coefficient {},Equation B - Temperature Term Coefficient {1/C},Equation C - Velocity Term Coefficient {s/m}, Equation D - Velocity Squared Term Coefficient {s2/m2},Minimum Indoor Temperature{C}/Schedule,Maximum Indoor Temperature{C}/Schedule,Delta Temperature{C}/Schedule,Minimum Outdoor Temperature{C}/Schedule,Maximum Outdoor Temperature{C}/Schedule,Maximum WindSpeed{m/s}
 ZoneVentilation Airflow Stats Nominal, ZONE1 INFILTRATION,INFILTRATIONYEAR,ZONE1,100.00,50.0,2.270E-002,2.270E-004,4.540E-004,0.218,Natural,0.000,1.0,1.000,0.000,0.000,0.000,-100.00,100.00,-100.00,-100.00,100.00,40.00
 ZoneVentilation Airflow Stats Nominal, ZONE2 INFILTRATION,INFILTRATIONYEAR,ZONE2,25.00,12.5,5.675E-003,2.270E-004,4.540E-004,0.272,Natural,0.000,1.0,1.000,0.000,0.000,0.000,-100.00,100.00,-100.00,-100.00,100.00,40.00
 ZoneVentilation Airflow Stats Nominal, ZONE3 INFILTRATION,INFILTRATIONYEAR,ZONE3,25.00,12.5,5.675E-003,2.270E-004,4.540E-004,0.272,Natural,0.000,1.0,1.000,0.000,0.000,0.000,-100.00,100.00,-100.00,-100.00,100.00,40.00
 ZoneVentilation Airflow Stats Nominal, ZONE4 INFILTRATION,INFILTRATIONYEAR,ZONE4,25.00,12.5,5.675E-003,2.270E-004,4.540E-004,0.272,Natural,0.000,1.0,1.000,0.000,0.000,0.000,-100.00,100.00,-100.00,-100.00,100.00,40.00
 ZoneVentilation Airflow Stats Nominal, ZONE1 VENTILATION,VENTILATIONYEAR,ZONE1,100.00,50.0,750.000,7.500,15.000,7200.000,Natural,0.000,1.0,1.000,0.000,0.000,0.000,-100.00,100.00,-100.00,-100.00,100.00,40.00
 ZoneVentilation Airflow Stats Nominal, ZONE2 VENTILATION,VENTILATIONYEAR,ZONE2,25.00,12.5,187.500,7.500,15.000,9000.000,Natural,0.000,1.0,1.000,0.000,0.000,0.000,-100.00,100.00,-100.00,-100.00,100.00,40.00
 ZoneVentilation Airflow Stats Nominal, ZONE3 VENTILATION,VENTILATIONYEAR,ZONE3,25.00,12.5,187.500,7.500,15.000,9000.000,Natural,0.000,1.0,1.000,0.000,0.000,0.000,-100.00,100.00,-100.00,-100.00,100.00,40.00
 ZoneVentilation Airflow Stats Nominal, ZONE4 VENTILATION,VENTILATIONYEAR,ZONE4,25.00,12.5,187.500,7.500,15.000,9000.000,Natural,0.000,1.0,1.000,0.000,0.000,0.000,-100.00,100.00,-100.00,-100.00,100.00,40.00
! <Mixing Airflow Stats Nominal>,Name,Schedule Name,Zone Name, Zone Floor Area {m2}, # Zone Occupants,Design Volume Flow Rate {m3/s},Volume Flow Rate/Floor Area {m3/s/m2},Volume Flow Rate/person Area {m3/s/person},ACH - Air Changes per Hour,From/Source Zone,Delta Temperature {C}
 Mixing Airflow Stats Nominal, ZONE1ZONE3AIRMIX0,ALWAYS ON,ZONE1,100.00,50.0,0.154,1.541E-003,3.082E-003,1.479,ZONE3,0.00
 Mixing Airflow Stats Nominal, ZONE2ZONE4AIRMIX0,ALWAYS ON,ZONE2,25.00,12.5,0.154,6.163E-003,1.233E-002,7.396,ZONE4,0.00
 Mixing Airflow Stats Nominal, ZONE3ZONE1AIRMIX0,ALWAYS ON,ZONE3,25.00,12.5,0.154,6.163E-003,1.233E-002,7.396,ZONE1,0.00
 Mixing Airflow Stats Nominal, ZONE4ZONE2AIRMIX0,ALWAYS ON,ZONE4,25.00,12.5,0.154,6.163E-003,1.233E-002,7.396,ZONE2,0.00
! <AirFlow Model>, Simple
 AirFlow Model, Simple
! <RoomAir Model>, Zone Name, Mixing/Mundt/UCSDDV/UCSDCV/UCSDUFI/UCSDUFE/User Defined
RoomAir Model,ZONE1,Mixing/Well-Stirred
RoomAir Model,ZONE2,Mixing/Well-Stirred
RoomAir Model,ZONE3,Mixing/Well-Stirred
RoomAir Model,ZONE4,Mixing/Well-Stirred
! <AirflowNetwork Model:Control>, No Multizone or Distribution/Multizone with Distribution/Multizone without Distribution/Multizone with Distribution only during Fan Operation
AirflowNetwork Model:Control,NoMultizoneOrDistribution
! <Zone Volume Capacitance Multiplier>, Sensible Heat Capacity Multiplier, Moisture Capacity Multiplier, Carbon Dioxide Capacity Multiplier, Generic Contaminant Capacity Multiplier
Zone Volume Capacitance Multiplier,   1.000 ,   1.000,   1.000,   1.000
! <Zone Surfaces>,Zone Name,# Surfaces
! <Shading Surfaces>,Number of Shading Surfaces,# Surfaces
! <HeatTransfer Surface>,Surface Name,Surface Class,Base Surface,Heat Transfer Algorithm,Construction,Nominal U (w/o film coefs) {W/m2-K},Nominal U (with film coefs) {W/m2-K},Solar Diffusing,Area (Net) {m2},Area (Gross) {m2},Area (Sunlit Calc) {m2},Azimuth {deg},Tilt {deg},~Width {m},~Height {m},Reveal {m},ExtBoundCondition,ExtConvCoeffCalc,IntConvCoeffCalc,SunExposure,WindExposure,ViewFactorToGround,ViewFactorToSky,ViewFactorToGround-IR,ViewFactorToSky-IR,#Sides
! <Shading Surface>,Surface Name,Surface Class,Base Surface,Heat Transfer Algorithm,Transmittance Schedule,Min Schedule Value,Max Schedule Value,Solar Diffusing,Area (Net) {m2},Area (Gross) {m2},Area (Sunlit Calc) {m2},Azimuth {deg},Tilt {deg},~Width {m},~Height {m},Reveal {m},ExtBoundCondition,ExtConvCoeffCalc,IntConvCoeffCalc,SunExposure,WindExposure,ViewFactorToGround,ViewFactorToSky,ViewFactorToGround-IR,ViewFactorToSky-IR,#Sides
! <Frame/Divider Surface>,Surface Name,Surface Class,Base Surface,Heat Transfer Algorithm,Construction,Nominal U (w/o film coefs) {W/m2-K},Nominal U (with film coefs) {W/m2-K},Solar Diffusing,Area (Net) {m2},Area (Gross) {m2},Area (Sunlit Calc) {m2},Azimuth {deg},Tilt {deg},~Width {m},~Height {m},Reveal {m}
Zone Surfaces,ZONE1,28
HeatTransfer Surface,466564015B2F43199C1B,Wall,,CTF - ConductionTransferFunction,EXTERIOR WALL,1.084,0.932,,25.20,30.00,25.20,180.00,90.00,10.00,3.00,0.00,ExternalEnvironment,DOE-2,ASHRAETARP,SunExposed,WindExposed,0.50,0.50,0.50,0.50,4
HeatTransfer Surface,466564015B2F43199C1B_GLZ_0_F3AAB6FB8BD3451FBA7D,Window,466564015B2F43199C1B,Window5 Detailed Fenestration,EXTERIOR WINDOW,N/A,1.600,No,4.80,4.80,4.80,180.00,90.00,3.00,1.60,0.00,ExternalEnvironment,DOE-2,ASHRAETARP,SunExposed,WindExposed,0.50,0.50,0.50,0.50,4
HeatTransfer Surface,AA69F423B82B48AAAA7E,Wall,,CTF - ConductionTransferFunction,EXTERIOR WALL,1.084,0.932,,10.20,15.00,10.20,180.00,90.00,5.00,3.00,0.00,ExternalEnvironment,DOE-2,ASHRAETARP,SunExposed,WindExposed,0.50,0.50,0.50,0.50,4
HeatTransfer Surface,AA69F423B82B48AAAA7E_GLZ_0_706693F7F3F64B68969E,Window,AA69F423B82B48AAAA7E,Window5 Detailed Fenestration,EXTERIOR WINDOW,N/A,1.600,No,4.80,4.80,4.80,180.00,90.00,3.00,1.60,0.00,ExternalEnvironment,DOE-2,ASHRAETARP,SunExposed,WindExposed,0.50,0.50,0.50,0.50,4
HeatTransfer Surface,FD8A070E4BE54D88AE3B,Wall,,CTF - ConductionTransferFunction,EXTERIOR WALL,1.084,0.932,,25.20,30.00,25.20,270.00,90.00,10.00,3.00,0.00,ExternalEnvironment,DOE-2,ASHRAETARP,SunExposed,WindExposed,0.50,0.50,0.50,0.50,4
HeatTransfer Surface,FD8A070E4BE54D88AE3B_GLZ_0_B285641B64A742589E03,Window,FD8A070E4BE54D88AE3B,Window5 Detailed Fenestration,EXTERIOR WINDOW,N/A,1.600,No,4.80,4.80,4.80,270.00,90.00,3.00,1.60,0.00,ExternalEnvironment,DOE-2,ASHRAETARP,SunExposed,WindExposed,0.50,0.50,0.50,0.50,4
HeatTransfer Surface,D9E98E2F98CA44578C65,Wall,,CTF - ConductionTransferFunction,EXTERIOR WALL,1.084,0.932,,15.00,15.00,15.00,270.00,90.00,5.00,3.00,0.00,ExternalEnvironment,DOE-2,ASHRAETARP,SunExposed,WindExposed,0.50,0.50,0.50,0.50,4
HeatTransfer Surface,AF6581C9E0E3475DA994,Wall,,CTF - ConductionTransferFunction,EXTERIOR WALL,1.084,0.932,,25.20,30.00,25.20,0.00,90.00,10.00,3.00,0.00,ExternalEnvironment,DOE-2,ASHRAETARP,SunExposed,WindExposed,0.50,0.50,0.50,0.50,4
HeatTransfer Surface,AF6581C9E0E3475DA994_GLZ_0_A0DF08794DAE4C1B8D9A,Window,AF6581C9E0E3475DA994,Window5 Detailed Fenestration,EXTERIOR WINDOW,N/A,1.600,No,4.80,4.80,4.80,0.00,90.00,3.00,1.60,0.00,ExternalEnvironment,DOE-2,ASHRAETARP,SunExposed,WindExposed,0.50,0.50,0.50,0.50,4
HeatTransfer Surface,3675D61B3AAB405AA64E,Wall,,CTF - ConductionTransferFunction,EXTERIOR WALL,1.084,0.932,,25.20,30.00,25.20,90.00,90.00,10.00,3.00,0.00,ExternalEnvironment,DOE-2,ASHRAETARP,SunExposed,WindExposed,0.50,0.50,0.50,0.50,4
HeatTransfer Surface,3675D61B3AAB405AA64E_GLZ_0_C015151E9B4341638ED8,Window,3675D61B3AAB405AA64E,Window5 Detailed Fenestration,EXTERIOR WINDOW,N/A,1.600,No,4.80,4.80,4.80,90.00,90.00,3.00,1.60,0.00,ExternalEnvironment,DOE-2,ASHRAETARP,SunExposed,WindExposed,0.50,0.50,0.50,0.50,4
HeatTransfer Surface,3450B9CAC0D14E639808_SRFP_0,Wall,,CTF - ConductionTransferFunction,INTERIOR WALL,2.807,1.977,,1.60,1.60,1.60,0.00,90.00,2.04,2.83,0.00,A492058F47A24CFDB0FC_SRFP_0,Other/Same Surface Int Conv,ASHRAETARP,NoSun,NoWind,0.50,0.50,0.50,0.50,3
HeatTransfer Surface,3450B9CAC0D14E639808_SRFP_1,Wall,,CTF - ConductionTransferFunction,INTERIOR WALL,2.807,1.977,,3.00,3.00,3.00,0.00,90.00,2.83,3.00,0.00,A492058F47A24CFDB0FC_SRFP_1,Other/Same Surface Int Conv,ASHRAETARP,NoSun,NoWind,0.50,0.50,0.50,0.50,3
HeatTransfer Surface,3450B9CAC0D14E639808_SRFP_2,Wall,,CTF - ConductionTransferFunction,INTERIOR WALL,2.807,1.977,,0.50,0.50,0.50,0.00,90.00,2.24,3.16,0.00,A492058F47A24CFDB0FC_SRFP_2,Other/Same Surface Int Conv,ASHRAETARP,NoSun,NoWind,0.50,0.50,0.50,0.50,3
HeatTransfer Surface,3450B9CAC0D14E639808_SRFP_3,Wall,,CTF - ConductionTransferFunction,INTERIOR WALL,2.807,1.977,,2.50,2.50,2.50,0.00,90.00,3.16,5.00,0.00,A492058F47A24CFDB0FC_SRFP_3,Other/Same Surface Int Conv,ASHRAETARP,NoSun,NoWind,0.50,0.50,0.50,0.50,3
HeatTransfer Surface,3450B9CAC0D14E639808_SRFP_4,Wall,,CTF - ConductionTransferFunction,INTERIOR WALL,2.807,1.977,,0.20,0.20,0.20,0.00,90.00,1.00,3.03,0.00,A492058F47A24CFDB0FC_SRFP_4,Other/Same Surface Int Conv,ASHRAETARP,NoSun,NoWind,0.50,0.50,0.50,0.50,3
HeatTransfer Surface,3450B9CAC0D14E639808_SRFP_5,Wall,,CTF - ConductionTransferFunction,INTERIOR WALL,2.807,1.977,,1.60,1.60,1.60,0.00,90.00,2.24,3.28,0.00,A492058F47A24CFDB0FC_SRFP_5,Other/Same Surface Int Conv,ASHRAETARP,NoSun,NoWind,0.50,0.50,0.50,0.50,3
HeatTransfer Surface,3450B9CAC0D14E639808_SRFP_6,Wall,,CTF - ConductionTransferFunction,INTERIOR WALL,2.807,1.977,,3.00,3.00,3.00,0.00,90.00,3.28,3.00,0.00,A492058F47A24CFDB0FC_SRFP_6,Other/Same Surface Int Conv,ASHRAETARP,NoSun,NoWind,0.50,0.50,0.50,0.50,3
HeatTransfer Surface,3450B9CAC0D14E639808_SRFP_7,Wall,,CTF - ConductionTransferFunction,INTERIOR WALL,2.807,1.977,,1.00,1.00,1.00,0.00,90.00,5.00,3.03,0.00,A492058F47A24CFDB0FC_SRFP_7,Other/Same Surface Int Conv,ASHRAETARP,NoSun,NoWind,0.50,0.50,0.50,0.50,3
HeatTransfer Surface,749EC30EECD34DC4A25C,Wall,,CTF - ConductionTransferFunction,INTERIOR WALL,2.807,1.977,,13.40,15.00,13.40,90.00,90.00,5.00,3.00,0.00,1940A526EB2349FCAC1E,Other/Same Surface Int Conv,ASHRAETARP,NoSun,NoWind,0.50,0.50,0.50,0.50,4
HeatTransfer Surface,749EC30EECD34DC4A25C_GLZ_0_7C286FED11CF4D82B23B,Window,749EC30EECD34DC4A25C,Window5 Detailed Fenestration,INTERIOR WINDOW,N/A,5.787,No,1.60,1.60,1.60,90.00,90.00,1.00,1.60,0.00,1940A526EB2349FCAC1E_GLZ_0_5B10F896F7BD4131A002,Other/Same Surface Int Conv,ASHRAETARP,NoSun,NoWind,0.50,0.50,0.50,0.50,4
HeatTransfer Surface,F54267983C3742E19DB3,Wall,,CTF - ConductionTransferFunction,AIR WALL,13.100,4.424,,1.60,1.60,1.60,0.00,90.00,1.00,1.60,0.00,629F7D9ECD6240458EB2,Other/Same Surface Int Conv,ASHRAETARP,NoSun,NoWind,0.50,0.50,0.50,0.50,4
HeatTransfer Surface,10AE508A81264C718D07,Floor,,CTF - ConductionTransferFunction,INTERIOR FLOOR,1.515,1.107,,25.00,25.00,25.00,90.00,180.00,5.00,5.00,0.00,FCBCC5A43A364B309038,Other/Same Surface Int Conv,ASHRAETARP,NoSun,NoWind,1.00,0.00,1.00,0.00,4
HeatTransfer Surface,91E9F8EB13224A229BEE,Floor,,CTF - ConductionTransferFunction,INTERIOR FLOOR,1.515,1.107,,25.00,25.00,25.00,90.00,180.00,5.00,5.00,0.00,D4EE8901333D4106849A,Other/Same Surface Int Conv,ASHRAETARP,NoSun,NoWind,1.00,0.00,1.00,0.00,4
HeatTransfer Surface,2A66A42AD58A403783AA,Floor,,CTF - ConductionTransferFunction,INTERIOR FLOOR,1.515,1.107,,25.00,25.00,25.00,90.00,180.00,5.00,5.00,0.00,47C50FED2A7A44E3B20B,Other/Same Surface Int Conv,ASHRAETARP,NoSun,NoWind,1.00,0.00,1.00,0.00,4
HeatTransfer Surface,134068DDAD364F55B5A4,Floor,,CTF - ConductionTransferFunction,EXTERIOR FLOOR,0.556,0.490,,25.00,25.00,25.00,90.00,180.00,5.00,5.00,0.00,Ground,N/A-Ground,ASHRAETARP,NoSun,NoWind,1.00,0.00,1.00,0.00,4
HeatTransfer Surface,15D536BB1111463BB433,Roof,,CTF - ConductionTransferFunction,EXTERIOR ROOF,0.174,0.168,,96.00,100.00,96.00,180.00,0.00,10.00,10.00,0.00,ExternalEnvironment,DOE-2,ASHRAETARP,SunExposed,WindExposed,0.00,1.00,0.00,1.00,4
HeatTransfer Surface,15D536BB1111463BB433_GLZ_0_3B1B787BEBAE42D6974C,Window,15D536BB1111463BB433,Window5 Detailed Fenestration,EXTERIOR WINDOW,N/A,1.600,No,4.00,4.00,4.00,180.00,0.00,2.00,2.00,0.00,ExternalEnvironment,DOE-2,ASHRAETARP,SunExposed,WindExposed,0.00,1.00,0.00,1.00,4
Zone Surfaces,ZONE2,16
HeatTransfer Surface,368CA5EB2212437BAC65,Wall,,CTF - ConductionTransferFunction,EXTERIOR WALL,1.084,0.932,,15.00,15.00,15.00,180.00,90.00,5.00,3.00,0.00,ExternalEnvironment,DOE-2,ASHRAETARP,SunExposed,WindExposed,0.50,0.50,0.50,0.50,4
HeatTransfer Surface,E9DEF6BFFD0D4E24982D,Wall,,CTF - ConductionTransferFunction,EXTERIOR WALL,1.084,0.932,,10.20,15.00,10.20,90.00,90.00,5.00,3.00,0.00,ExternalEnvironment,DOE-2,ASHRAETARP,SunExposed,WindExposed,0.50,0.50,0.50,0.50,4
HeatTransfer Surface,E9DEF6BFFD0D4E24982D_GLZ_0_FACD16C8C8724A7C9FE8,Window,E9DEF6BFFD0D4E24982D,Window5 Detailed Fenestration,EXTERIOR WINDOW,N/A,1.600,No,4.80,4.80,4.80,90.00,90.00,3.00,1.60,0.00,ExternalEnvironment,DOE-2,ASHRAETARP,SunExposed,WindExposed,0.50,0.50,0.50,0.50,4
HeatTransfer Surface,18827043BD1748228F9F_SRFP_0,Wall,,CTF - ConductionTransferFunction,INTERIOR WALL,2.807,1.977,,1.60,1.60,1.60,0.00,90.00,2.04,2.83,0.00,1B4A70146E884417A6C2_SRFP_0,Other/Same Surface Int Conv,ASHRAETARP,NoSun,NoWind,0.50,0.50,0.50,0.50,3
HeatTransfer Surface,18827043BD1748228F9F_SRFP_1,Wall,,CTF - ConductionTransferFunction,INTERIOR WALL,2.807,1.977,,3.00,3.00,3.00,0.00,90.00,2.83,3.00,0.00,1B4A70146E884417A6C2_SRFP_1,Other/Same Surface Int Conv,ASHRAETARP,NoSun,NoWind,0.50,0.50,0.50,0.50,3
HeatTransfer Surface,18827043BD1748228F9F_SRFP_2,Wall,,CTF - ConductionTransferFunction,INTERIOR WALL,2.807,1.977,,0.50,0.50,0.50,0.00,90.00,2.24,3.16,0.00,1B4A70146E884417A6C2_SRFP_2,Other/Same Surface Int Conv,ASHRAETARP,NoSun,NoWind,0.50,0.50,0.50,0.50,3
HeatTransfer Surface,18827043BD1748228F9F_SRFP_3,Wall,,CTF - ConductionTransferFunction,INTERIOR WALL,2.807,1.977,,2.50,2.50,2.50,0.00,90.00,3.16,5.00,0.00,1B4A70146E884417A6C2_SRFP_3,Other/Same Surface Int Conv,ASHRAETARP,NoSun,NoWind,0.50,0.50,0.50,0.50,3
HeatTransfer Surface,18827043BD1748228F9F_SRFP_4,Wall,,CTF - ConductionTransferFunction,INTERIOR WALL,2.807,1.977,,0.20,0.20,0.20,0.00,90.00,1.00,3.03,0.00,1B4A70146E884417A6C2_SRFP_4,Other/Same Surface Int Conv,ASHRAETARP,NoSun,NoWind,0.50,0.50,0.50,0.50,3
HeatTransfer Surface,18827043BD1748228F9F_SRFP_5,Wall,,CTF - ConductionTransferFunction,INTERIOR WALL,2.807,1.977,,1.60,1.60,1.60,0.00,90.00,2.24,3.28,0.00,1B4A70146E884417A6C2_SRFP_5,Other/Same Surface Int Conv,ASHRAETARP,NoSun,NoWind,0.50,0.50,0.50,0.50,3
HeatTransfer Surface,18827043BD1748228F9F_SRFP_6,Wall,,CTF - ConductionTransferFunction,INTERIOR WALL,2.807,1.977,,3.00,3.00,3.00,0.00,90.00,3.28,3.00,0.00,1B4A70146E884417A6C2_SRFP_6,Other/Same Surface Int Conv,ASHRAETARP,NoSun,NoWind,0.50,0.50,0.50,0.50,3
HeatTransfer Surface,18827043BD1748228F9F_SRFP_7,Wall,,CTF - ConductionTransferFunction,INTERIOR WALL,2.807,1.977,,1.00,1.00,1.00,0.00,90.00,5.00,3.03,0.00,1B4A70146E884417A6C2_SRFP_7,Other/Same Surface Int Conv,ASHRAETARP,NoSun,NoWind,0.50,0.50,0.50,0.50,3
HeatTransfer Surface,1940A526EB2349FCAC1E,Wall,,CTF - ConductionTransferFunction,INTERIOR WALL,2.807,1.977,,13.40,15.00,13.40,270.00,90.00,5.00,3.00,0.00,749EC30EECD34DC4A25C,Other/Same Surface Int Conv,ASHRAETARP,NoSun,NoWind,0.50,0.50,0.50,0.50,4
HeatTransfer Surface,1940A526EB2349FCAC1E_GLZ_0_5B10F896F7BD4131A002,Window,1940A526EB2349FCAC1E,Window5 Detailed Fenestration,INTERIOR WINDOW,N/A,5.787,No,1.60,1.60,1.60,270.00,90.00,1.60,1.00,0.00,749EC30EECD34DC4A25C_GLZ_0_7C286FED11CF4D82B23B,Other/Same Surface Int Conv,ASHRAETARP,NoSun,NoWind,0.50,0.50,0.50,0.50,4
HeatTransfer Surface,21EFBD8EB290413FBD96,Wall,,CTF - ConductionTransferFunction,AIR WALL,13.100,4.424,,1.60,1.60,1.60,0.00,90.00,1.00,1.60,0.00,E4458FF87EE04E219343,Other/Same Surface Int Conv,ASHRAETARP,NoSun,NoWind,0.50,0.50,0.50,0.50,4
HeatTransfer Surface,6EF94013FE2746C399E9,Floor,,CTF - ConductionTransferFunction,EXTERIOR FLOOR,0.556,0.490,,25.00,25.00,25.00,90.00,180.00,5.00,5.00,0.00,Ground,N/A-Ground,ASHRAETARP,NoSun,NoWind,1.00,0.00,1.00,0.00,4
HeatTransfer Surface,47C50FED2A7A44E3B20B,Roof,,CTF - ConductionTransferFunction,INTERIOR CEILING,1.515,1.179,,25.00,25.00,25.00,180.00,0.00,5.00,5.00,0.00,2A66A42AD58A403783AA,Other/Same Surface Int Conv,ASHRAETARP,NoSun,NoWind,0.00,1.00,0.00,1.00,4
Zone Surfaces,ZONE3,16
HeatTransfer Surface,65EDE32B890F4F1F9280,Wall,,CTF - ConductionTransferFunction,EXTERIOR WALL,1.084,0.932,,15.00,15.00,15.00,0.00,90.00,5.00,3.00,0.00,ExternalEnvironment,DOE-2,ASHRAETARP,SunExposed,WindExposed,0.50,0.50,0.50,0.50,4
HeatTransfer Surface,E792B52EA48241D382FB,Wall,,CTF - ConductionTransferFunction,EXTERIOR WALL,1.084,0.932,,10.20,15.00,10.20,270.00,90.00,5.00,3.00,0.00,ExternalEnvironment,DOE-2,ASHRAETARP,SunExposed,WindExposed,0.50,0.50,0.50,0.50,4
HeatTransfer Surface,E792B52EA48241D382FB_GLZ_0_1798305B2A5941A4899A,Window,E792B52EA48241D382FB,Window5 Detailed Fenestration,EXTERIOR WINDOW,N/A,1.600,No,4.80,4.80,4.80,270.00,90.00,3.00,1.60,0.00,ExternalEnvironment,DOE-2,ASHRAETARP,SunExposed,WindExposed,0.50,0.50,0.50,0.50,4
HeatTransfer Surface,A492058F47A24CFDB0FC_SRFP_0,Wall,,CTF - ConductionTransferFunction,INTERIOR WALL,2.807,1.977,,1.60,1.60,1.60,180.00,90.00,2.83,2.04,0.00,3450B9CAC0D14E639808_SRFP_0,Other/Same Surface Int Conv,ASHRAETARP,NoSun,NoWind,0.50,0.50,0.50,0.50,3
HeatTransfer Surface,A492058F47A24CFDB0FC_SRFP_1,Wall,,CTF - ConductionTransferFunction,INTERIOR WALL,2.807,1.977,,3.00,3.00,3.00,180.00,90.00,3.00,2.83,0.00,3450B9CAC0D14E639808_SRFP_1,Other/Same Surface Int Conv,ASHRAETARP,NoSun,NoWind,0.50,0.50,0.50,0.50,3
HeatTransfer Surface,A492058F47A24CFDB0FC_SRFP_2,Wall,,CTF - ConductionTransferFunction,INTERIOR WALL,2.807,1.977,,0.50,0.50,0.50,180.00,90.00,3.16,2.24,0.00,3450B9CAC0D14E639808_SRFP_2,Other/Same Surface Int Conv,ASHRAETARP,NoSun,NoWind,0.50,0.50,0.50,0.50,3
HeatTransfer Surface,A492058F47A24CFDB0FC_SRFP_3,Wall,,CTF - ConductionTransferFunction,INTERIOR WALL,2.807,1.977,,2.50,2.50,2.50,180.00,90.00,5.00,3.16,0.00,3450B9CAC0D14E639808_SRFP_3,Other/Same Surface Int Conv,ASHRAETARP,NoSun,NoWind,0.50,0.50,0.50,0.50,3
HeatTransfer Surface,A492058F47A24CFDB0FC_SRFP_4,Wall,,CTF - ConductionTransferFunction,INTERIOR WALL,2.807,1.977,,0.20,0.20,0.20,180.00,90.00,3.03,1.00,0.00,3450B9CAC0D14E639808_SRFP_4,Other/Same Surface Int Conv,ASHRAETARP,NoSun,NoWind,0.50,0.50,0.50,0.50,3
HeatTransfer Surface,A492058F47A24CFDB0FC_SRFP_5,Wall,,CTF - ConductionTransferFunction,INTERIOR WALL,2.807,1.977,,1.60,1.60,1.60,180.00,90.00,3.28,2.24,0.00,3450B9CAC0D14E639808_SRFP_5,Other/Same Surface Int Conv,ASHRAETARP,NoSun,NoWind,0.50,0.50,0.50,0.50,3
HeatTransfer Surface,A492058F47A24CFDB0FC_SRFP_6,Wall,,CTF - ConductionTransferFunction,INTERIOR WALL,2.807,1.977,,3.00,3.00,3.00,180.00,90.00,3.00,3.28,0.00,3450B9CAC0D14E639808_SRFP_6,Other/Same Surface Int Conv,ASHRAETARP,NoSun,NoWind,0.50,0.50,0.50,0.50,3
HeatTransfer Surface,A492058F47A24CFDB0FC_SRFP_7,Wall,,CTF - ConductionTransferFunction,INTERIOR WALL,2.807,1.977,,1.00,1.00,1.00,180.00,90.00,3.03,5.00,0.00,3450B9CAC0D14E639808_SRFP_7,Other/Same Surface Int Conv,ASHRAETARP,NoSun,NoWind,0.50,0.50,0.50,0.50,3
HeatTransfer Surface,1489C5E4864749108183,Wall,,CTF - ConductionTransferFunction,INTERIOR WALL,2.807,1.977,,13.40,15.00,13.40,90.00,90.00,5.00,3.00,0.00,9A94ACA56A16440990CD,Other/Same Surface Int Conv,ASHRAETARP,NoSun,NoWind,0.50,0.50,0.50,0.50,4
HeatTransfer Surface,1489C5E4864749108183_GLZ_0_F33F73C9CB4C44119EC3,Window,1489C5E4864749108183,Window5 Detailed Fenestration,INTERIOR WINDOW,N/A,5.787,No,1.60,1.60,1.60,90.00,90.00,1.00,1.60,0.00,9A94ACA56A16440990CD_GLZ_0_BEDFD86103A246C58282,Other/Same Surface Int Conv,ASHRAETARP,NoSun,NoWind,0.50,0.50,0.50,0.50,4
HeatTransfer Surface,629F7D9ECD6240458EB2,Wall,,CTF - ConductionTransferFunction,AIR WALL,13.100,4.424,,1.60,1.60,1.60,180.00,90.00,1.00,1.60,0.00,F54267983C3742E19DB3,Other/Same Surface Int Conv,ASHRAETARP,NoSun,NoWind,0.50,0.50,0.50,0.50,4
HeatTransfer Surface,607BDE968C67456E8C5E,Floor,,CTF - ConductionTransferFunction,EXTERIOR FLOOR,0.556,0.490,,25.00,25.00,25.00,90.00,180.00,5.00,5.00,0.00,Ground,N/A-Ground,ASHRAETARP,NoSun,NoWind,1.00,0.00,1.00,0.00,4
HeatTransfer Surface,FCBCC5A43A364B309038,Roof,,CTF - ConductionTransferFunction,INTERIOR CEILING,1.515,1.179,,25.00,25.00,25.00,180.00,0.00,5.00,5.00,0.00,10AE508A81264C718D07,Other/Same Surface Int Conv,ASHRAETARP,NoSun,NoWind,0.00,1.00,0.00,1.00,4
Zone Surfaces,ZONE4,16
HeatTransfer Surface,A9013CCDF7514C79B799,Wall,,CTF - ConductionTransferFunction,EXTERIOR WALL,1.084,0.932,,15.00,15.00,15.00,90.00,90.00,5.00,3.00,0.00,ExternalEnvironment,DOE-2,ASHRAETARP,SunExposed,WindExposed,0.50,0.50,0.50,0.50,4
HeatTransfer Surface,0BB252B337B243D1A9CA,Wall,,CTF - ConductionTransferFunction,EXTERIOR WALL,1.084,0.932,,10.20,15.00,10.20,0.00,90.00,5.00,3.00,0.00,ExternalEnvironment,DOE-2,ASHRAETARP,SunExposed,WindExposed,0.50,0.50,0.50,0.50,4
HeatTransfer Surface,0BB252B337B243D1A9CA_GLZ_0_F5CF2156590D48F8B885,Window,0BB252B337B243D1A9CA,Window5 Detailed Fenestration,EXTERIOR WINDOW,N/A,1.600,No,4.80,4.80,4.80,0.00,90.00,3.00,1.60,0.00,ExternalEnvironment,DOE-2,ASHRAETARP,SunExposed,WindExposed,0.50,0.50,0.50,0.50,4
HeatTransfer Surface,1B4A70146E884417A6C2_SRFP_0,Wall,,CTF - ConductionTransferFunction,INTERIOR WALL,2.807,1.977,,1.60,1.60,1.60,180.00,90.00,2.83,2.04,0.00,18827043BD1748228F9F_SRFP_0,Other/Same Surface Int Conv,ASHRAETARP,NoSun,NoWind,0.50,0.50,0.50,0.50,3
HeatTransfer Surface,1B4A70146E884417A6C2_SRFP_1,Wall,,CTF - ConductionTransferFunction,INTERIOR WALL,2.807,1.977,,3.00,3.00,3.00,180.00,90.00,3.00,2.83,0.00,18827043BD1748228F9F_SRFP_1,Other/Same Surface Int Conv,ASHRAETARP,NoSun,NoWind,0.50,0.50,0.50,0.50,3
HeatTransfer Surface,1B4A70146E884417A6C2_SRFP_2,Wall,,CTF - ConductionTransferFunction,INTERIOR WALL,2.807,1.977,,0.50,0.50,0.50,180.00,90.00,3.16,2.24,0.00,18827043BD1748228F9F_SRFP_2,Other/Same Surface Int Conv,ASHRAETARP,NoSun,NoWind,0.50,0.50,0.50,0.50,3
HeatTransfer Surface,1B4A70146E884417A6C2_SRFP_3,Wall,,CTF - ConductionTransferFunction,INTERIOR WALL,2.807,1.977,,2.50,2.50,2.50,180.00,90.00,5.00,3.16,0.00,18827043BD1748228F9F_SRFP_3,Other/Same Surface Int Conv,ASHRAETARP,NoSun,NoWind,0.50,0.50,0.50,0.50,3
HeatTransfer Surface,1B4A70146E884417A6C2_SRFP_4,Wall,,CTF - ConductionTransferFunction,INTERIOR WALL,2.807,1.977,,0.20,0.20,0.20,180.00,90.00,3.03,1.00,0.00,18827043BD1748228F9F_SRFP_4,Other/Same Surface Int Conv,ASHRAETARP,NoSun,NoWind,0.50,0.50,0.50,0.50,3
HeatTransfer Surface,1B4A70146E884417A6C2_SRFP_5,Wall,,CTF - ConductionTransferFunction,INTERIOR WALL,2.807,1.977,,1.60,1.60,1.60,180.00,90.00,3.28,2.24,0.00,18827043BD1748228F9F_SRFP_5,Other/Same Surface Int Conv,ASHRAETARP,NoSun,NoWind,0.50,0.50,0.50,0.50,3
HeatTransfer Surface,1B4A70146E884417A6C2_SRFP_6,Wall,,CTF - ConductionTransferFunction,INTERIOR WALL,2.807,1.977,,3.00,3.00,3.00,180.00,90.00,3.00,3.28,0.00,18827043BD1748228F9F_SRFP_6,Other/Same Surface Int Conv,ASHRAETARP,NoSun,NoWind,0.50,0.50,0.50,0.50,3
HeatTransfer Surface,1B4A70146E884417A6C2_SRFP_7,Wall,,CTF - ConductionTransferFunction,INTERIOR WALL,2.807,1.977,,1.00,1.00,1.00,180.00,90.00,3.03,5.00,0.00,18827043BD1748228F9F_SRFP_7,Other/Same Surface Int Conv,ASHRAETARP,NoSun,NoWind,0.50,0.50,0.50,0.50,3
HeatTransfer Surface,9A94ACA56A16440990CD,Wall,,CTF - ConductionTransferFunction,INTERIOR WALL,2.807,1.977,,13.40,15.00,13.40,270.00,90.00,5.00,3.00,0.00,1489C5E4864749108183,Other/Same Surface Int Conv,ASHRAETARP,NoSun,NoWind,0.50,0.50,0.50,0.50,4
HeatTransfer Surface,9A94ACA56A16440990CD_GLZ_0_BEDFD86103A246C58282,Window,9A94ACA56A16440990CD,Window5 Detailed Fenestration,INTERIOR WINDOW,N/A,5.787,No,1.60,1.60,1.60,270.00,90.00,1.60,1.00,0.00,1489C5E4864749108183_GLZ_0_F33F73C9CB4C44119EC3,Other/Same Surface Int Conv,ASHRAETARP,NoSun,NoWind,0.50,0.50,0.50,0.50,4
HeatTransfer Surface,E4458FF87EE04E219343,Wall,,CTF - ConductionTransferFunction,AIR WALL,13.100,4.424,,1.60,1.60,1.60,180.00,90.00,1.00,1.60,0.00,21EFBD8EB290413FBD96,Other/Same Surface Int Conv,ASHRAETARP,NoSun,NoWind,0.50,0.50,0.50,0.50,4
HeatTransfer Surface,92EBA5E7333F41208130,Floor,,CTF - ConductionTransferFunction,EXTERIOR FLOOR,0.556,0.490,,25.00,25.00,25.00,90.00,180.00,5.00,5.00,0.00,Ground,N/A-Ground,ASHRAETARP,NoSun,NoWind,1.00,0.00,1.00,0.00,4
HeatTransfer Surface,D4EE8901333D4106849A,Roof,,CTF - ConductionTransferFunction,INTERIOR CEILING,1.515,1.179,,25.00,25.00,25.00,180.00,0.00,5.00,5.00,0.00,91E9F8EB13224A229BEE,Other/Same Surface Int Conv,ASHRAETARP,NoSun,NoWind,0.00,1.00,0.00,1.00,4
! <Environment>,Environment Name,Environment Type, Start Date, End Date, Start DayOfWeek, Duration {#days}, Source:Start DayOfWeek,  Use Daylight Saving, Use Holidays, Apply Weekend Holiday Rule,  Use Rain Values, Use Snow Values
! <Environment:Special Days>, Special Day Name, Special Day Type, Source, Start Date, Duration {#days}
! <Environment:Daylight Saving>, Daylight Saving Indicator, Source, Start Date, End Date
! <Environment:WarmupDays>, NumberofWarmupDays
Environment,PARAMETRIC RUN,WeatherFileRunPeriod,01/01,12/31,Monday,365,Use RunPeriod Specified Day,Yes,Yes,No,Yes,Yes
Environment:Daylight Saving,No,
Environment:WarmupDays,  6
! <Warmup Convergence Information>,Zone Name,Environment Type/Name,Average Warmup Temperature Difference {deltaC},Std Dev Warmup Temperature Difference {deltaC},Max Temperature Pass/Fail Convergence,Min Temperature Pass/Fail Convergence,Average Warmup Load Difference {W},Std Dev Warmup Load Difference {W},Heating Load Pass/Fail Convergence,Cooling Load Pass/Fail Convergence
 Warmup Convergence Information,ZONE1,RunPeriod: PARAMETRIC RUN,8.2312507705E-002,0.5057159670,Pass,Pass,5.0117339651E-002,0.1679586238,Pass,Pass
 Warmup Convergence Information,ZONE2,RunPeriod: PARAMETRIC RUN,8.0391741286E-002,0.4763506530,Pass,Pass,3.2421303134E-002,0.1517571322,Pass,Pass
 Warmup Convergence Information,ZONE3,RunPeriod: PARAMETRIC RUN,8.0770053786E-002,0.4924000712,Pass,Pass,3.2606556477E-002,0.1517823544,Pass,Pass
 Warmup Convergence Information,ZONE4,RunPeriod: PARAMETRIC RUN,8.0144772933E-002,0.4754755726,Pass,Pass,3.2577625225E-002,0.1522351646,Pass,Pass
! <Program Control Information:Threads/Parallel Sims>, Threading Supported,Maximum Number of Threads, Env Set Threads (OMP_NUM_THREADS), EP Env Set Threads (EP_OMP_NUM_THREADS), IDF Set Threads, Number of Threads Used (Interior Radiant Exchange), Number Nominal Surfaces, Number Parallel Sims
Program Control:Threads/Parallel Sims, No,1, N/A, N/A, N/A, N/A, N/A, N/A
End of Data
