Program Version,EnergyPlus, Version 8.8.0-7c3bbe4830, YMD=2018.07.16 21:58
! This file shows details about the branches, nodes, and other
! elements of the flow connections.
! This file is intended for use in "debugging" potential problems
! that may also be detected by the program, but may be more easily
! identified by "eye".
! This file is also intended to support software which draws a
! schematic diagram of the HVAC system.
! ===============================================================
! #Nodes,<Number of Unique Nodes>
 #Nodes,16
! <Node>,<NodeNumber>,<Node Name>,<Node Fluid Type>,<# Times Node Referenced After Definition>
 Node,1,ZONE1 ZONE AIR NODE,Air,0
 Node,2,ZONE1 IDEAL LOADS SUPPLY INLET,Air,1
 Node,3,ZONE1 RETURN OUTLET,Air,0
 Node,4,ZONE2 ZONE AIR NODE,Air,0
 Node,5,ZONE2 IDEAL LOADS SUPPLY INLET,Air,1
 Node,6,ZONE2 RETURN OUTLET,Air,0
 Node,7,ZONE3 ZONE AIR NODE,Air,0
 Node,8,ZONE3 IDEAL LOADS SUPPLY INLET,Air,1
 Node,9,ZONE3 RETURN OUTLET,Air,0
 Node,10,ZONE4 ZONE AIR NODE,Air,0
 Node,11,ZONE4 IDEAL LOADS SUPPLY INLET,Air,1
 Node,12,ZONE4 RETURN OUTLET,Air,0
 Node,13,ZONE1 IDEAL LOADS OUTDOOR AIR INLET,Air,1
 Node,14,ZONE2 IDEAL LOADS OUTDOOR AIR INLET,Air,1
 Node,15,ZONE3 IDEAL LOADS OUTDOOR AIR INLET,Air,1
 Node,16,ZONE4 IDEAL LOADS OUTDOOR AIR INLET,Air,1
! ===============================================================
! Suspicious nodes have 0 references.  It is normal for some nodes, however.
! Listing nodes with 0 references (culled from previous list):
! <Suspicious Node>,<NodeNumber>,<Node Name>,<Node Fluid Type>,<# Times Node Referenced After Definition>
 Suspicious Node,1,ZONE1 ZONE AIR NODE,Air,0
 Suspicious Node,3,ZONE1 RETURN OUTLET,Air,0
 Suspicious Node,4,ZONE2 ZONE AIR NODE,Air,0
 Suspicious Node,6,ZONE2 RETURN OUTLET,Air,0
 Suspicious Node,7,ZONE3 ZONE AIR NODE,Air,0
 Suspicious Node,9,ZONE3 RETURN OUTLET,Air,0
 Suspicious Node,10,ZONE4 ZONE AIR NODE,Air,0
 Suspicious Node,12,ZONE4 RETURN OUTLET,Air,0
! ===============================================================
! <#Branch Lists>,<Number of Branch Lists>
 #Branch Lists,0
! <Branch List>,<Branch List Count>,<Branch List Name>,<Loop Name>,<Loop Type>,<Number of Branches>
! <Branch>,<Branch Count>,<Branch Name>,<Loop Name>,<Loop Type>,<Branch Inlet Node Name>,<Branch Outlet Node Name>
! ===============================================================
! <#Supply Air Paths>,<Number of Supply Air Paths>
 #Supply Air Paths,0
! <Supply Air Path>,<Supply Air Path Count>,<Supply Air Path Name>,<AirLoopHVAC Name>
! <#Components on Supply Air Path>,<Number of Components>
! <Supply Air Path Component>,<Component Count>,<Component Type>,<Component Name>,<AirLoopHVAC Name>
! <#Outlet Nodes on Supply Air Path Component>,<Number of Nodes>
! <Supply Air Path Component Nodes>,<Node Count>,<Component Type>,<Component Name>,<Inlet Node Name>,<Outlet Node Name>,<AirLoopHVAC Name>
! ===============================================================
! <#Return Air Paths>,<Number of Return Air Paths>
 #Return Air Paths,0
! <Return Air Path>,<Return Air Path Count>,<Return Air Path Name>,<AirLoopHVAC Name>
! <#Components on Return Air Path>,<Number of Components>
! <Return Air Path Component>,<Component Count>,<Component Type>,<Component Name>,<AirLoopHVAC Name>
! <#Inlet Nodes on Return Air Path Component>,<Number of Nodes>
! <Return Air Path Component Nodes>,<Node Count>,<Component Type>,<Component Name>,<Inlet Node Name>,<Outlet Node Name>,<AirLoopHVAC Name>
! ===============================================================
! #Outdoor Air Nodes,<Number of Outdoor Air Nodes>
 #Outdoor Air Nodes,4
! <Outdoor Air Node>,<NodeNumber>,<Node Name>
 Outdoor Air Node,13,ZONE1 IDEAL LOADS OUTDOOR AIR INLET
 Outdoor Air Node,14,ZONE2 IDEAL LOADS OUTDOOR AIR INLET
 Outdoor Air Node,15,ZONE3 IDEAL LOADS OUTDOOR AIR INLET
 Outdoor Air Node,16,ZONE4 IDEAL LOADS OUTDOOR AIR INLET
! ===============================================================
! <#Component Sets>,<Number of Component Sets>
 #Component Sets,0
! <Component Set>,<Component Set Count>,<Parent Object Type>,<Parent Object Name>,<Component Type>,<Component Name>,<Inlet Node ID>,<Outlet Node ID>,<Description>
! ===============================================================
! <# Plant Loops>,<Number of Plant Loops>
 #Plant Loops,0
! <Plant Loop>,<Plant Loop Name>,<Loop Type>,<Inlet Node Name>,<Outlet Node Name>,<Branch List>,<Connector List>
! <Plant Loop Connector>,<Connector Type>,<Connector Name>,<Loop Name>,<Loop Type>,<Number of Inlets/Outlets>
! <Plant Loop Connector Branches>,<Connector Node Count>,<Connector Type>,<Connector Name>,<Inlet Branch>,<Outlet Branch>,<Loop Name>,<Loop Type>
! <Plant Loop Connector Nodes>,<Connector Node Count>,<Connector Type>,<Connector Name>,<Inlet Node>,<Outlet Node>,<Loop Name>,<Loop Type>
! <Plant Loop Supply Connection>,<Plant Loop Name>,<Supply Side Outlet Node Name>,<Demand Side Inlet Node Name>
! <Plant Loop Return Connection>,<Plant Loop Name>,<Demand Side Outlet Node Name>,<Supply Side Inlet Node Name>
! ===============================================================
! <# Condenser Loops>,<Number of Condenser Loops>
 #Condenser Loops,0
! <Condenser Loop>,<Condenser Loop Name>,<Loop Type>,<Inlet Node Name>,<Outlet Node Name>,<Branch List>,<Connector List>
! <Condenser Loop Connector>,<Connector Type>,<Connector Name>,<Loop Name>,<Loop Type>,<Number of Inlets/Outlets>
! <Condenser Loop Connector Branches>,<Connector Node Count>,<Connector Type>,<Connector Name>,<Inlet Branch>,<Outlet Branch>,<Loop Name>,<Loop Type>
! <Condenser Loop Connector Nodes>,<Connector Node Count>,<Connector Type>,<Connector Name>,<Inlet Node>,<Outlet Node>,<Loop Name>,<Loop Type>
! <Condenser Loop Supply Connection>,<Condenser Loop Name>,<Supply Side Outlet Node Name>,<Demand Side Inlet Node Name>
! <Condenser Loop Return Connection>,<Condenser Loop Name>,<Demand Side Outlet Node Name>,<Supply Side Inlet Node Name>
! ===============================================================
! <# Controlled Zones>,<Number of Controlled Zones>
 #Controlled Zones,4
! <Controlled Zone>,<Controlled Zone Name>,<Equip List Name>,<Control List Name>,<Zone Node Name>,<# Inlet Nodes>,<# Exhaust Nodes>,<# Return Nodes>
! <Controlled Zone Inlet>,<Inlet Node Count>,<Controlled Zone Name>,<Supply Air Inlet Node Name>,<SD Sys:Cooling/Heating [DD:Cooling] Inlet Node Name>,<DD Sys:Heating Inlet Node Name>
! <Controlled Zone Exhaust>,<Exhaust Node Count>,<Controlled Zone Name>,<Exhaust Air Node Name>
 Controlled Zone,ZONE1,ZONE1 EQUIPMENT,,ZONE1 ZONE AIR NODE,1,0,1
   Controlled Zone Inlet,1,ZONE1,ZONE1 IDEAL LOADS SUPPLY INLET,Undefined,N/A
   Controlled Zone Return,1,ZONE1,ZONE1 RETURN OUTLET
 Controlled Zone,ZONE2,ZONE2 EQUIPMENT,,ZONE2 ZONE AIR NODE,1,0,1
   Controlled Zone Inlet,1,ZONE2,ZONE2 IDEAL LOADS SUPPLY INLET,Undefined,N/A
   Controlled Zone Return,1,ZONE2,ZONE2 RETURN OUTLET
 Controlled Zone,ZONE3,ZONE3 EQUIPMENT,,ZONE3 ZONE AIR NODE,1,0,1
   Controlled Zone Inlet,1,ZONE3,ZONE3 IDEAL LOADS SUPPLY INLET,Undefined,N/A
   Controlled Zone Return,1,ZONE3,ZONE3 RETURN OUTLET
 Controlled Zone,ZONE4,ZONE4 EQUIPMENT,,ZONE4 ZONE AIR NODE,1,0,1
   Controlled Zone Inlet,1,ZONE4,ZONE4 IDEAL LOADS SUPPLY INLET,Undefined,N/A
   Controlled Zone Return,1,ZONE4,ZONE4 RETURN OUTLET
! ===============================================================
! <#Zone Equipment Lists>,<Number of Zone Equipment Lists>
 #Zone Equipment Lists,4
! <Zone Equipment List>,<Zone Equipment List Count>,<Zone Equipment List Name>,<Zone Name>,<Number of Components>
! <Zone Equipment Component>,<Component Count>,<Component Type>,<Component Name>,<Zone Name>,<Heating Priority>,<Cooling Priority>
 Zone Equipment List,1,ZONE1 EQUIPMENT,ZONE1,1
   Zone Equipment Component,1,ZONEHVAC:IDEALLOADSAIRSYSTEM,ZONE1 IDEAL LOADS AIR SYSTEM,ZONE1,1,1
 Zone Equipment List,2,ZONE2 EQUIPMENT,ZONE2,1
   Zone Equipment Component,1,ZONEHVAC:IDEALLOADSAIRSYSTEM,ZONE2 IDEAL LOADS AIR SYSTEM,ZONE2,1,1
 Zone Equipment List,3,ZONE3 EQUIPMENT,ZONE3,1
   Zone Equipment Component,1,ZONEHVAC:IDEALLOADSAIRSYSTEM,ZONE3 IDEAL LOADS AIR SYSTEM,ZONE3,1,1
 Zone Equipment List,4,ZONE4 EQUIPMENT,ZONE4,1
   Zone Equipment Component,1,ZONEHVAC:IDEALLOADSAIRSYSTEM,ZONE4 IDEAL LOADS AIR SYSTEM,ZONE4,1,1
! ===============================================================
! <#AirLoopHVACs>,<Number of AirLoopHVACs>
 #AirLoopHVACs,0
! <AirLoopHVAC>,<Air Loop Name>,<# Return Nodes>,<# Supply Nodes>,<# Zones Cooled>,<# Zones Heated>,<Outdoor Air Used>
! <AirLoop Return Connections>,<Connection Count>,<AirLoopHVAC Name>,<Zn Eqp Return Node #>,<Zn Eqp Return Node Name>,<AirLoop Return Node #>,<Air Loop Return Node Name>
! <AirLoop Supply Connections>,<Connection Count>,<AirLoopHVAC Name>,<Zn Eqp Supply Node #>,<Zn Eqp Supply Node Name>,<AirLoop Supply Node #>,<Air Loop Supply Node Name>
! <Cooled Zone Info>,<Cooled Zone Count>,<Cooled Zone Name>,<Cooled Zone Inlet Node #>,<Cooled Zone Inlet Node Name>,<AirLoopHVAC Name>
! <Heated Zone Info>,<Heated Zone Count>,<Heated Zone Name>,<Heated Zone Inlet Node #>,<Heated Zone Inlet Node Name>,<AirLoopHVAC Name>
! <Outdoor Air Connections>,<OA Inlet Node #>,<OA Return Air Inlet Node Name>,<OA Outlet Node #>,<OA Mixed Air Outlet Node Name>,<AirLoopHVAC Name>
! <AirLoopHVAC Connector>,<Connector Type>,<Connector Name>,<Loop Name>,<Loop Type>,<Number of Inlets/Outlets>
! <AirLoopHVAC Connector Branches>,<Connector Node Count>,<Connector Type>,<Connector Name>,<Inlet Branch>,<Outlet Branch>,<Loop Name>,<Loop Type>
! <AirLoopHVAC Connector Nodes>,<Connector Node Count>,<Connector Type>,<Connector Name>,<Inlet Node>,<Outlet Node>,<Loop Name>,<Loop Type>
! ===============================================================
! <#Parent Node Connections>,<Number of Parent Node Connections>
 #Parent Node Connections,0
! <Parent Node Connection>,<Node Name>,<Node ObjectType>,<Node ObjectName>,<Node ConnectionType>,<Node FluidStream>
! ===============================================================
! <#Non-Parent Node Connections>,<Number of Non-Parent Node Connections>
 #Non-Parent Node Connections,24
! <Non-Parent Node Connection>,<Node Name>,<Node ObjectType>,<Node ObjectName>,<Node ConnectionType>,<Node FluidStream>
 Non-Parent Node Connection,ZONE1 ZONE AIR NODE,ZONEHVAC:EQUIPMENTCONNECTIONS,ZONE1,ZoneNode,1
 Non-Parent Node Connection,ZONE1 IDEAL LOADS SUPPLY INLET,ZONEHVAC:EQUIPMENTCONNECTIONS,ZONE1,ZoneInlet,1
 Non-Parent Node Connection,ZONE1 RETURN OUTLET,ZONEHVAC:EQUIPMENTCONNECTIONS,ZONE1,ZoneReturn,1
 Non-Parent Node Connection,ZONE2 ZONE AIR NODE,ZONEHVAC:EQUIPMENTCONNECTIONS,ZONE2,ZoneNode,1
 Non-Parent Node Connection,ZONE2 IDEAL LOADS SUPPLY INLET,ZONEHVAC:EQUIPMENTCONNECTIONS,ZONE2,ZoneInlet,1
 Non-Parent Node Connection,ZONE2 RETURN OUTLET,ZONEHVAC:EQUIPMENTCONNECTIONS,ZONE2,ZoneReturn,1
 Non-Parent Node Connection,ZONE3 ZONE AIR NODE,ZONEHVAC:EQUIPMENTCONNECTIONS,ZONE3,ZoneNode,1
 Non-Parent Node Connection,ZONE3 IDEAL LOADS SUPPLY INLET,ZONEHVAC:EQUIPMENTCONNECTIONS,ZONE3,ZoneInlet,1
 Non-Parent Node Connection,ZONE3 RETURN OUTLET,ZONEHVAC:EQUIPMENTCONNECTIONS,ZONE3,ZoneReturn,1
 Non-Parent Node Connection,ZONE4 ZONE AIR NODE,ZONEHVAC:EQUIPMENTCONNECTIONS,ZONE4,ZoneNode,1
 Non-Parent Node Connection,ZONE4 IDEAL LOADS SUPPLY INLET,ZONEHVAC:EQUIPMENTCONNECTIONS,ZONE4,ZoneInlet,1
 Non-Parent Node Connection,ZONE4 RETURN OUTLET,ZONEHVAC:EQUIPMENTCONNECTIONS,ZONE4,ZoneReturn,1
 Non-Parent Node Connection,ZONE1 IDEAL LOADS SUPPLY INLET,ZONEHVAC:IDEALLOADSAIRSYSTEM,ZONE1 IDEAL LOADS AIR SYSTEM,Outlet,1
 Non-Parent Node Connection,ZONE1 IDEAL LOADS OUTDOOR AIR INLET,ZONEHVAC:IDEALLOADSAIRSYSTEM,ZONE1 IDEAL LOADS AIR SYSTEM,Outlet,1
 Non-Parent Node Connection,ZONE1 IDEAL LOADS OUTDOOR AIR INLET,OUTDOORAIR:NODE,OutdoorAir:Node,OutdoorAir,1
 Non-Parent Node Connection,ZONE2 IDEAL LOADS SUPPLY INLET,ZONEHVAC:IDEALLOADSAIRSYSTEM,ZONE2 IDEAL LOADS AIR SYSTEM,Outlet,1
 Non-Parent Node Connection,ZONE2 IDEAL LOADS OUTDOOR AIR INLET,ZONEHVAC:IDEALLOADSAIRSYSTEM,ZONE2 IDEAL LOADS AIR SYSTEM,Outlet,1
 Non-Parent Node Connection,ZONE2 IDEAL LOADS OUTDOOR AIR INLET,OUTDOORAIR:NODE,OutdoorAir:Node,OutdoorAir,2
 Non-Parent Node Connection,ZONE3 IDEAL LOADS SUPPLY INLET,ZONEHVAC:IDEALLOADSAIRSYSTEM,ZONE3 IDEAL LOADS AIR SYSTEM,Outlet,1
 Non-Parent Node Connection,ZONE3 IDEAL LOADS OUTDOOR AIR INLET,ZONEHVAC:IDEALLOADSAIRSYSTEM,ZONE3 IDEAL LOADS AIR SYSTEM,Outlet,1
 Non-Parent Node Connection,ZONE3 IDEAL LOADS OUTDOOR AIR INLET,OUTDOORAIR:NODE,OutdoorAir:Node,OutdoorAir,3
 Non-Parent Node Connection,ZONE4 IDEAL LOADS SUPPLY INLET,ZONEHVAC:IDEALLOADSAIRSYSTEM,ZONE4 IDEAL LOADS AIR SYSTEM,Outlet,1
 Non-Parent Node Connection,ZONE4 IDEAL LOADS OUTDOOR AIR INLET,ZONEHVAC:IDEALLOADSAIRSYSTEM,ZONE4 IDEAL LOADS AIR SYSTEM,Outlet,1
 Non-Parent Node Connection,ZONE4 IDEAL LOADS OUTDOOR AIR INLET,OUTDOORAIR:NODE,OutdoorAir:Node,OutdoorAir,4
